version 3
run General-0-20221125-10:08:38-61273
attr configname General
attr datetime 20221125-10:08:38
attr datetimef 20221125-100838
attr experiment General
attr inifile omnetpp.ini
attr iterationvars ""
attr iterationvarsd ""
attr iterationvarsf ""
attr measurement ""
attr network Ethernet
attr processid 61273
attr repetition 0
attr replication #0
attr resultdir results
attr runnumber 0
attr seedset 0
config image-path ../../inet4.4/images
config network Ethernet
config sim-time-limit 10s
config **.s0.cli.destAddress "\"s1\""
config **.s1.cli.destAddress "\"s0\""
config **.cli.sendInterval exponential(1s)
config **.cli.reqLength "intuniform(50, 1400)*1B"
config **.cli.respLength "intWithUnit(truncnormal(3000B, 3000B))"
config **.s2.cli.destAddress "\"s3\""
config **.s3.cli.destAddress "\"s2\""
config **.cli.sendInterval exponential(1s)
config **.cli.reqLength "intuniform(50, 1400)*1B"
config **.cli.respLength "intWithUnit(truncnormal(3000B, 3000B))"
config **.s4.cli.destAddress "\"s5\""
config **.s5.cli.destAddress "\"s4\""
config **.cli.sendInterval exponential(1s)
config **.cli.reqLength "intuniform(50, 1400)*1B"
config **.cli.respLength "intWithUnit(truncnormal(3000B, 3000B))"

par Ethernet.s1.ethg$o.channel typename "\"inet.node.ethernet.Eth10M\""
par Ethernet.s1.ethg$o.channel disabled false
attr mutable ""
par Ethernet.s1.ethg$o.channel delay 5e-08s
attr mutable ""
attr unit s
par Ethernet.s1.ethg$o.channel datarate 1e+07bps
attr mutable ""
attr unit bps
par Ethernet.s1.ethg$o.channel ber 0
attr mutable ""
par Ethernet.s1.ethg$o.channel per 0
attr mutable ""
par Ethernet.s1.ethg$o.channel length 10m
attr unit m
par Ethernet.ethernetHub.ethg$o[0].channel typename "\"inet.node.ethernet.Eth10M\""
par Ethernet.ethernetHub.ethg$o[0].channel disabled false
attr mutable ""
par Ethernet.ethernetHub.ethg$o[0].channel delay 5e-08s
attr mutable ""
attr unit s
par Ethernet.ethernetHub.ethg$o[0].channel datarate 1e+07bps
attr mutable ""
attr unit bps
par Ethernet.ethernetHub.ethg$o[0].channel ber 0
attr mutable ""
par Ethernet.ethernetHub.ethg$o[0].channel per 0
attr mutable ""
par Ethernet.ethernetHub.ethg$o[0].channel length 10m
attr unit m
par Ethernet.s0.ethg$o.channel typename "\"inet.node.ethernet.Eth10M\""
par Ethernet.s0.ethg$o.channel disabled false
attr mutable ""
par Ethernet.s0.ethg$o.channel delay 5e-08s
attr mutable ""
attr unit s
par Ethernet.s0.ethg$o.channel datarate 1e+07bps
attr mutable ""
attr unit bps
par Ethernet.s0.ethg$o.channel ber 0
attr mutable ""
par Ethernet.s0.ethg$o.channel per 0
attr mutable ""
par Ethernet.s0.ethg$o.channel length 10m
attr unit m
par Ethernet.ethernetHub.ethg$o[1].channel typename "\"inet.node.ethernet.Eth10M\""
par Ethernet.ethernetHub.ethg$o[1].channel disabled false
attr mutable ""
par Ethernet.ethernetHub.ethg$o[1].channel delay 5e-08s
attr mutable ""
attr unit s
par Ethernet.ethernetHub.ethg$o[1].channel datarate 1e+07bps
attr mutable ""
attr unit bps
par Ethernet.ethernetHub.ethg$o[1].channel ber 0
attr mutable ""
par Ethernet.ethernetHub.ethg$o[1].channel per 0
attr mutable ""
par Ethernet.ethernetHub.ethg$o[1].channel length 10m
attr unit m
par Ethernet.s5.ethg$o.channel typename "\"inet.node.ethernet.Eth10M\""
par Ethernet.s5.ethg$o.channel disabled false
attr mutable ""
par Ethernet.s5.ethg$o.channel delay 5e-08s
attr mutable ""
attr unit s
par Ethernet.s5.ethg$o.channel datarate 1e+07bps
attr mutable ""
attr unit bps
par Ethernet.s5.ethg$o.channel ber 0
attr mutable ""
par Ethernet.s5.ethg$o.channel per 0
attr mutable ""
par Ethernet.s5.ethg$o.channel length 10m
attr unit m
par Ethernet.ethernetHub.ethg$o[2].channel typename "\"inet.node.ethernet.Eth10M\""
par Ethernet.ethernetHub.ethg$o[2].channel disabled false
attr mutable ""
par Ethernet.ethernetHub.ethg$o[2].channel delay 5e-08s
attr mutable ""
attr unit s
par Ethernet.ethernetHub.ethg$o[2].channel datarate 1e+07bps
attr mutable ""
attr unit bps
par Ethernet.ethernetHub.ethg$o[2].channel ber 0
attr mutable ""
par Ethernet.ethernetHub.ethg$o[2].channel per 0
attr mutable ""
par Ethernet.ethernetHub.ethg$o[2].channel length 10m
attr unit m
par Ethernet.s4.ethg$o.channel typename "\"inet.node.ethernet.Eth10M\""
par Ethernet.s4.ethg$o.channel disabled false
attr mutable ""
par Ethernet.s4.ethg$o.channel delay 5e-08s
attr mutable ""
attr unit s
par Ethernet.s4.ethg$o.channel datarate 1e+07bps
attr mutable ""
attr unit bps
par Ethernet.s4.ethg$o.channel ber 0
attr mutable ""
par Ethernet.s4.ethg$o.channel per 0
attr mutable ""
par Ethernet.s4.ethg$o.channel length 10m
attr unit m
par Ethernet.ethernetHub.ethg$o[3].channel typename "\"inet.node.ethernet.Eth10M\""
par Ethernet.ethernetHub.ethg$o[3].channel disabled false
attr mutable ""
par Ethernet.ethernetHub.ethg$o[3].channel delay 5e-08s
attr mutable ""
attr unit s
par Ethernet.ethernetHub.ethg$o[3].channel datarate 1e+07bps
attr mutable ""
attr unit bps
par Ethernet.ethernetHub.ethg$o[3].channel ber 0
attr mutable ""
par Ethernet.ethernetHub.ethg$o[3].channel per 0
attr mutable ""
par Ethernet.ethernetHub.ethg$o[3].channel length 10m
attr unit m
par Ethernet.s3.ethg$o.channel typename "\"inet.node.ethernet.Eth10M\""
par Ethernet.s3.ethg$o.channel disabled false
attr mutable ""
par Ethernet.s3.ethg$o.channel delay 5e-08s
attr mutable ""
attr unit s
par Ethernet.s3.ethg$o.channel datarate 1e+07bps
attr mutable ""
attr unit bps
par Ethernet.s3.ethg$o.channel ber 0
attr mutable ""
par Ethernet.s3.ethg$o.channel per 0
attr mutable ""
par Ethernet.s3.ethg$o.channel length 10m
attr unit m
par Ethernet.ethernetHub.ethg$o[4].channel typename "\"inet.node.ethernet.Eth10M\""
par Ethernet.ethernetHub.ethg$o[4].channel disabled false
attr mutable ""
par Ethernet.ethernetHub.ethg$o[4].channel delay 5e-08s
attr mutable ""
attr unit s
par Ethernet.ethernetHub.ethg$o[4].channel datarate 1e+07bps
attr mutable ""
attr unit bps
par Ethernet.ethernetHub.ethg$o[4].channel ber 0
attr mutable ""
par Ethernet.ethernetHub.ethg$o[4].channel per 0
attr mutable ""
par Ethernet.ethernetHub.ethg$o[4].channel length 10m
attr unit m
par Ethernet.s2.ethg$o.channel typename "\"inet.node.ethernet.Eth10M\""
par Ethernet.s2.ethg$o.channel disabled false
attr mutable ""
par Ethernet.s2.ethg$o.channel delay 5e-08s
attr mutable ""
attr unit s
par Ethernet.s2.ethg$o.channel datarate 1e+07bps
attr mutable ""
attr unit bps
par Ethernet.s2.ethg$o.channel ber 0
attr mutable ""
par Ethernet.s2.ethg$o.channel per 0
attr mutable ""
par Ethernet.s2.ethg$o.channel length 10m
attr unit m
par Ethernet.ethernetHub.ethg$o[5].channel typename "\"inet.node.ethernet.Eth10M\""
par Ethernet.ethernetHub.ethg$o[5].channel disabled false
attr mutable ""
par Ethernet.ethernetHub.ethg$o[5].channel delay 5e-08s
attr mutable ""
attr unit s
par Ethernet.ethernetHub.ethg$o[5].channel datarate 1e+07bps
attr mutable ""
attr unit bps
par Ethernet.ethernetHub.ethg$o[5].channel ber 0
attr mutable ""
par Ethernet.ethernetHub.ethg$o[5].channel per 0
attr mutable ""
par Ethernet.ethernetHub.ethg$o[5].channel length 10m
attr unit m
par Ethernet.s0.eth.phys$o.channel typename "\"ned.IdealChannel\""
par Ethernet.s0.ethg$i.channel typename "\"ned.IdealChannel\""
par Ethernet.s0.interfaceTable typename "\"inet.networklayer.common.InterfaceTable\""
par Ethernet.s0.interfaceTable displayAddresses false
par Ethernet.s0.cli typename "\"inet.applications.ethernet.EtherAppClient\""
par Ethernet.s0.cli interfaceTableModule "\"Ethernet.s0.interfaceTable\""
par Ethernet.s0.cli destAddress "\"s1\""
par Ethernet.s0.cli interface "\"eth\""
par Ethernet.s0.cli startTime 0.795875s
attr unit s
par Ethernet.s0.cli stopTime -1s
attr unit s
par Ethernet.s0.cli localSAP 240
par Ethernet.s0.cli remoteSAP 241
par Ethernet.s0.cli sendInterval exponential(1s)
attr unit s
par Ethernet.s0.cli reqLength "intuniform(50, 1400)*1B"
attr unit B
par Ethernet.s0.cli respLength "intWithUnit(truncnormal(3000B, 3000B))"
attr unit B
par Ethernet.s0.cli stopOperationExtraTime -1s
attr unit s
par Ethernet.s0.cli stopOperationTimeout 2s
attr unit s
scalar Ethernet.s0.cli packetReceived:count 15
attr interpolationmode none
attr recordingmode count
attr source packetReceived
attr title "packets received, count"
scalar Ethernet.s0.cli packetReceived:sum(packetBytes) 17007
attr interpolationmode none
attr recordingmode sum(packetBytes)
attr source packetReceived
attr title "packets received, sum(packetBytes)"
statistic Ethernet.s0.cli endToEndDelay:histogram
field count 15
field mean 0.00216074
field stddev 0.0014143280912555
field min 0.0003817
field max 0.0045393
field sum 0.0324111
field sqrsum 9.803649551e-05
attr interpolationmode none
attr recordingmode histogram
attr source dataAge(packetReceived)
attr title "end-to-end delay"
attr unit s
bin	-inf	0
bin	0	0
bin	0.0001	0
bin	0.0002	0
bin	0.0003	1
bin	0.0004	1
bin	0.0005	0
bin	0.0006	1
bin	0.0007	0
bin	0.0008	0
bin	0.0009	0
bin	0.001	0
bin	0.0011	1
bin	0.0012	3
bin	0.0013	0
bin	0.0014	0
bin	0.0015	0
bin	0.0016	0
bin	0.0017	0
bin	0.0018	0
bin	0.0019	0
bin	0.002	0
bin	0.0021	0
bin	0.0022	0
bin	0.0023	0
bin	0.0024	3
bin	0.0025	1
bin	0.0026	0
bin	0.0027	0
bin	0.0028	0
bin	0.0029	0
bin	0.003	0
bin	0.0031	0
bin	0.0032	0
bin	0.0033	0
bin	0.0034	0
bin	0.0035	0
bin	0.0036	2
bin	0.0037	0
bin	0.0038	0
bin	0.0039	0
bin	0.004	0
bin	0.0041	0
bin	0.0042	0
bin	0.0043	1
bin	0.0044	0
bin	0.0045	1
bin	0.0046	0
bin	0.0047	0
bin	0.0048	0
bin	0.0049	0
bin	0.005	0
bin	0.0051	0
bin	0.0052	0
bin	0.0053	0
bin	0.0054	0
bin	0.0055	0
bin	0.0056	0
scalar Ethernet.s0.cli packetSent:count 8
attr interpolationmode none
attr recordingmode count
attr source packetSent
attr title "packets sent, count"
scalar Ethernet.s0.cli packetSent:sum(packetBytes) 6192
attr interpolationmode none
attr recordingmode sum(packetBytes)
attr source packetSent
attr title "packets sent, sum(packetBytes)"
par Ethernet.s0.srv typename "\"inet.applications.ethernet.EtherAppServer\""
par Ethernet.s0.srv localSAP 241
par Ethernet.s0.srv stopOperationExtraTime -1s
attr unit s
par Ethernet.s0.srv stopOperationTimeout 2s
attr unit s
scalar Ethernet.s0.srv packetReceived:count 7
attr interpolationmode none
attr recordingmode count
attr source packetReceived
attr title "packets received, count"
scalar Ethernet.s0.srv packetReceived:sum(packetBytes) 5634
attr interpolationmode none
attr recordingmode sum(packetBytes)
attr source packetReceived
attr title "packets received, sum(packetBytes)"
statistic Ethernet.s0.srv endToEndDelay:histogram
field count 7
field mean 0.00066718571428571
field stddev 0.00028943620729832
field min 0.0003225
field max 0.0011161
field sum 0.0046703
field sqrsum 3.61859735e-06
attr interpolationmode none
attr recordingmode histogram
attr source dataAge(packetReceived)
attr title "end-to-end delay"
attr unit s
bin	-inf	0
bin	0.00012	0
bin	0.00014	0
bin	0.00016	0
bin	0.00018	0
bin	0.0002	0
bin	0.00022	0
bin	0.00024	0
bin	0.00026	0
bin	0.00028	0
bin	0.0003	0
bin	0.00032	1
bin	0.00034	0
bin	0.00036	0
bin	0.00038	1
bin	0.0004	0
bin	0.00042	0
bin	0.00044	0
bin	0.00046	0
bin	0.00048	0
bin	0.0005	0
bin	0.00052	0
bin	0.00054	1
bin	0.00056	0
bin	0.00058	0
bin	0.0006	0
bin	0.00062	0
bin	0.00064	0
bin	0.00066	1
bin	0.00068	1
bin	0.0007	0
bin	0.00072	0
bin	0.00074	0
bin	0.00076	0
bin	0.00078	0
bin	0.0008	0
bin	0.00082	0
bin	0.00084	0
bin	0.00086	0
bin	0.00088	0
bin	0.0009	0
bin	0.00092	0
bin	0.00094	1
bin	0.00096	0
bin	0.00098	0
bin	0.001	0
bin	0.00102	0
bin	0.00104	0
bin	0.00106	0
bin	0.00108	0
bin	0.0011	1
bin	0.00112	0
bin	0.00114	0
bin	0.00116	0
bin	0.00118	0
bin	0.0012	0
bin	0.00122	0
bin	0.00124	0
bin	0.00126	0
bin	0.00128	0
bin	0.0013	0
bin	0.00132	0
scalar Ethernet.s0.srv packetSent:count 27
attr interpolationmode none
attr recordingmode count
attr source packetSent
attr title "packets sent, count"
scalar Ethernet.s0.srv packetSent:sum(packetBytes) 35450
attr interpolationmode none
attr recordingmode sum(packetBytes)
attr source packetSent
attr title "packets sent, sum(packetBytes)"
par Ethernet.s0.dp typename "\"inet.common.MessageDispatcher\""
par Ethernet.s0.dp displayStringTextFormat "\"processed %p pk (%l)\""
par Ethernet.s0.dp forwardServiceRegistration true
par Ethernet.s0.dp forwardProtocolRegistration true
par Ethernet.s0.llc typename "\"inet.linklayer.ieee8022.Ieee8022Llc\""
par Ethernet.s0.llc registerProtocol true
par Ethernet.s0.encap typename "\"inet.linklayer.ethernet.basic.EthernetEncapsulation\""
par Ethernet.s0.encap registerProtocol true
par Ethernet.s0.encap interfaceTableModule "\"Ethernet.s0.interfaceTable\""
par Ethernet.s0.encap fcsMode "\"declared\""
attr enum declared,computed
par Ethernet.s0.encap stopOperationExtraTime -1s
attr unit s
par Ethernet.s0.encap stopOperationTimeout 2s
attr unit s
scalar Ethernet.s0.encap pauseSent:count 0
attr recordingmode count
attr title "pause sent, count"
scalar Ethernet.s0.encap pauseSent:sum 0
attr recordingmode sum
attr title "pause sent, sum"
scalar Ethernet.s0.encap decapPk:count 22
attr interpolationmode none
attr recordingmode count
attr source decapPk
attr title "packets decapsulated, count"
scalar Ethernet.s0.encap decapPk:sum(packetBytes) 22707
attr interpolationmode none
attr recordingmode sum(packetBytes)
attr source decapPk
attr title "packets decapsulated, sum(packetBytes)"
scalar Ethernet.s0.encap encapPk:count 35
attr interpolationmode none
attr recordingmode count
attr source encapPk
attr title "packets encapsulated, count"
scalar Ethernet.s0.encap encapPk:sum(packetBytes) 41747
attr interpolationmode none
attr recordingmode sum(packetBytes)
attr source encapPk
attr title "packets encapsulated, sum(packetBytes)"
par Ethernet.s0.li typename "\"inet.common.MessageDispatcher\""
par Ethernet.s0.li displayStringTextFormat "\"processed %p pk (%l)\""
par Ethernet.s0.li forwardServiceRegistration true
par Ethernet.s0.li forwardProtocolRegistration true
par Ethernet.s0.eth.mac.phys$o.channel typename "\"ned.IdealChannel\""
par Ethernet.s0.eth.phys$i.channel typename "\"ned.IdealChannel\""
par Ethernet.s0.eth.upperLayerIn.channel typename "\"ned.IdealChannel\""
par Ethernet.s0.eth.mac.upperLayerOut.channel typename "\"ned.IdealChannel\""
par Ethernet.s0.eth.queue typename "\"inet.linklayer.ethernet.common.EthernetQueue\""
par Ethernet.s0.eth.queue displayStringTextFormat "\"contains %p pk (%l) pushed %u\\npulled %o removed %r dropped %d\""
par Ethernet.s0.eth.queue packetCapacity 1000
par Ethernet.s0.eth.queue dataCapacity -1b
attr unit b
par Ethernet.s0.eth.queue dropperClass "\"inet::queueing::PacketAtCollectionEndDropper\""
par Ethernet.s0.eth.queue comparatorClass "\"inet::EthernetFrameTypeComparator\""
par Ethernet.s0.eth.queue bufferModule "\"\""
scalar Ethernet.s0.eth.queue queueLength:last 0
attr autoWarmupFilter false
attr interpolationmode sample-hold
attr recordingmode last
attr source "warmup(atomic(constant0(packetPushEnded) + count(packetPushStarted) - count(packetPulled) - count(packetRemoved) - count(packetDropped)))"
attr title "queue length, last"
attr unit pk
scalar Ethernet.s0.eth.queue queueLength:max 6
attr autoWarmupFilter false
attr interpolationmode sample-hold
attr recordingmode max
attr source "warmup(atomic(constant0(packetPushEnded) + count(packetPushStarted) - count(packetPulled) - count(packetRemoved) - count(packetDropped)))"
attr title "queue length, max"
attr unit pk
scalar Ethernet.s0.eth.queue queueLength:timeavg 0.0074860343912283
attr autoWarmupFilter false
attr interpolationmode sample-hold
attr recordingmode timeavg
attr source "warmup(atomic(constant0(packetPushEnded) + count(packetPushStarted) - count(packetPulled) - count(packetRemoved) - count(packetDropped)))"
attr title "queue length, timeavg"
attr unit pk
scalar Ethernet.s0.eth.queue queueBitLength:last 0
attr autoWarmupFilter false
attr interpolationmode sample-hold
attr recordingmode last
attr source "warmup(atomic(constant0(packetPushEnded) + sum(packetLength(packetPushStarted)) - sum(packetLength(packetPulled)) - sum(packetLength(packetRemoved)) - sum(packetLength(packetDropped))))"
attr title "queue bit length, last"
attr unit b
scalar Ethernet.s0.eth.queue queueBitLength:max 61632
attr autoWarmupFilter false
attr interpolationmode sample-hold
attr recordingmode max
attr source "warmup(atomic(constant0(packetPushEnded) + sum(packetLength(packetPushStarted)) - sum(packetLength(packetPulled)) - sum(packetLength(packetRemoved)) - sum(packetLength(packetDropped))))"
attr title "queue bit length, max"
attr unit b
scalar Ethernet.s0.eth.queue queueBitLength:timeavg 77.078348959055
attr autoWarmupFilter false
attr interpolationmode sample-hold
attr recordingmode timeavg
attr source "warmup(atomic(constant0(packetPushEnded) + sum(packetLength(packetPushStarted)) - sum(packetLength(packetPulled)) - sum(packetLength(packetRemoved)) - sum(packetLength(packetDropped))))"
attr title "queue bit length, timeavg"
attr unit b
statistic Ethernet.s0.eth.queue queueingTime:histogram
field count 35
field mean 0.00196864
field stddev 0.0022960572634794
field min 0
field max 0.0073824
field sum 0.0689024
field sqrsum 0.00031488790528
attr interpolationmode none
attr recordingmode histogram
attr source queueingTime(packetPulled)
attr title "queueing times"
attr unit s
bin	-inf	0
bin	0	15
bin	0.0002	0
bin	0.0004	0
bin	0.0006	0
bin	0.0008	0
bin	0.001	0
bin	0.0012	6
bin	0.0014	0
bin	0.0016	0
bin	0.0018	0
bin	0.002	0
bin	0.0022	0
bin	0.0024	4
bin	0.0026	0
bin	0.0028	0
bin	0.003	0
bin	0.0032	0
bin	0.0034	0
bin	0.0036	3
bin	0.0038	0
bin	0.004	0
bin	0.0042	0
bin	0.0044	0
bin	0.0046	0
bin	0.0048	3
bin	0.005	0
bin	0.0052	0
bin	0.0054	0
bin	0.0056	0
bin	0.0058	0
bin	0.006	3
bin	0.0062	0
bin	0.0064	0
bin	0.0066	0
bin	0.0068	0
bin	0.007	0
bin	0.0072	1
bin	0.0074	0
bin	0.0076	0
bin	0.0078	0
bin	0.008	0
bin	0.0082	0
bin	0.0084	0
bin	0.0086	0
bin	0.0088	0
bin	0.009	0
bin	0.0092	0
bin	0.0094	0
scalar Ethernet.s0.eth.queue outgoingPackets:count 35
attr recordingmode count
attr source packetPulled
attr title "outgoing packets, count"
attr unit pk
scalar Ethernet.s0.eth.queue outgoingPacketLengths:sum 339016
attr interpolationmode none
attr recordingmode sum
attr source packetLength(packetPulled)
attr title "outgoing packet lengths, sum"
attr unit b
statistic Ethernet.s0.eth.queue outgoingPacketLengths:histogram
field count 35
field mean 9686.1714285714
field stddev 3792.7262078082
field min 752
field max 12144
field sum 339016
field sqrsum 3772849344
attr interpolationmode none
attr recordingmode histogram
attr source packetLength(packetPulled)
attr title "outgoing packet lengths"
attr unit b
bin	-inf	0
bin	0	0
bin	200	0
bin	400	0
bin	600	1
bin	800	1
bin	1000	0
bin	1200	0
bin	1400	0
bin	1600	0
bin	1800	1
bin	2000	0
bin	2200	0
bin	2400	0
bin	2600	1
bin	2800	1
bin	3000	0
bin	3200	0
bin	3400	0
bin	3600	0
bin	3800	1
bin	4000	0
bin	4200	0
bin	4400	0
bin	4600	0
bin	4800	0
bin	5000	0
bin	5200	0
bin	5400	0
bin	5600	0
bin	5800	0
bin	6000	0
bin	6200	0
bin	6400	0
bin	6600	0
bin	6800	1
bin	7000	0
bin	7200	1
bin	7400	0
bin	7600	0
bin	7800	0
bin	8000	0
bin	8200	0
bin	8400	0
bin	8600	2
bin	8800	1
bin	9000	0
bin	9200	0
bin	9400	0
bin	9600	0
bin	9800	1
bin	10000	0
bin	10200	1
bin	10400	0
bin	10600	0
bin	10800	1
bin	11000	0
bin	11200	0
bin	11400	0
bin	11600	1
bin	11800	0
bin	12000	20
bin	12200	0
bin	12400	0
bin	12600	0
bin	12800	0
bin	13000	0
bin	13200	0
bin	13400	0
bin	13600	0
bin	13800	0
bin	14000	0
bin	14200	0
bin	14400	0
bin	14600	0
bin	14800	0
bin	15000	0
statistic Ethernet.s0.eth.queue flowQueueingTime:histogram
field count 0
field mean nan
field stddev nan
field min nan
field max nan
field sum 0
field sqrsum 0
attr interpolationmode none
attr recordingmode histogram
attr source queueingTime(demuxFlow(packetPulled))
attr title "flow queueing times"
attr unit s
bin	-inf	0
bin	0	0
bin	1	0
scalar Ethernet.s0.eth.queue incomingPackets:count 35
attr recordingmode count
attr source packetPushStarted
attr title "incoming packets, count"
attr unit pk
scalar Ethernet.s0.eth.queue incomingPacketLengths:sum 339016
attr interpolationmode none
attr recordingmode sum
attr source packetLength(packetPushStarted)
attr title "incoming packet lengths, sum"
attr unit b
statistic Ethernet.s0.eth.queue incomingPacketLengths:histogram
field count 35
field mean 9686.1714285714
field stddev 3792.7262078082
field min 752
field max 12144
field sum 339016
field sqrsum 3772849344
attr interpolationmode none
attr recordingmode histogram
attr source packetLength(packetPushStarted)
attr title "incoming packet lengths"
attr unit b
bin	-inf	0
bin	0	0
bin	200	0
bin	400	0
bin	600	1
bin	800	1
bin	1000	0
bin	1200	0
bin	1400	0
bin	1600	0
bin	1800	1
bin	2000	0
bin	2200	0
bin	2400	0
bin	2600	1
bin	2800	1
bin	3000	0
bin	3200	0
bin	3400	0
bin	3600	0
bin	3800	1
bin	4000	0
bin	4200	0
bin	4400	0
bin	4600	0
bin	4800	0
bin	5000	0
bin	5200	0
bin	5400	0
bin	5600	0
bin	5800	0
bin	6000	0
bin	6200	0
bin	6400	0
bin	6600	0
bin	6800	1
bin	7000	0
bin	7200	1
bin	7400	0
bin	7600	0
bin	7800	0
bin	8000	0
bin	8200	0
bin	8400	0
bin	8600	2
bin	8800	1
bin	9000	0
bin	9200	0
bin	9400	0
bin	9600	0
bin	9800	1
bin	10000	0
bin	10200	1
bin	10400	0
bin	10600	0
bin	10800	1
bin	11000	0
bin	11200	0
bin	11400	0
bin	11600	1
bin	11800	0
bin	12000	20
bin	12200	0
bin	12400	0
bin	12600	0
bin	12800	0
bin	13000	0
bin	13200	0
bin	13400	0
bin	13600	0
bin	13800	0
bin	14000	0
bin	14200	0
bin	14400	0
bin	14600	0
bin	14800	0
bin	15000	0
scalar Ethernet.s0.eth.queue droppedPacketsQueueOverflow:count 0
attr interpolationmode none
attr recordingmode count
attr source packetDropReasonIsQueueOverflow(packetDropped)
attr title "dropped packets: queue overflow, count"
attr unit pk
scalar Ethernet.s0.eth.queue droppedPacketLengthsQueueOverflow:sum 0
attr interpolationmode none
attr recordingmode sum
attr source packetLength(packetDropReasonIsQueueOverflow(packetDropped))
attr title "dropped packet lengths: queue overflow, sum"
attr unit b
par Ethernet.s0.eth.mac typename "\"inet.linklayer.ethernet.basic.EthernetCsmaMac\""
par Ethernet.s0.eth.mac interfaceTableModule "\"Ethernet.s0.interfaceTable\""
par Ethernet.s0.eth.mac displayStringTextFormat "\"rate: %b\\nsent: %s, rcvd: %r\\nqueue: %q, drop: %d\""
par Ethernet.s0.eth.mac sendRawBytes false
par Ethernet.s0.eth.mac promiscuous false
par Ethernet.s0.eth.mac duplexMode true
par Ethernet.s0.eth.mac frameBursting true
par Ethernet.s0.eth.mac mtu 1500B
attr unit B
par Ethernet.s0.eth.mac fcsMode "\"declared\""
attr enum declared,computed
par Ethernet.s0.eth.mac stopOperationExtraTime -1s
attr unit s
par Ethernet.s0.eth.mac stopOperationTimeout 2s
attr unit s
scalar Ethernet.s0.eth.mac "simulated time" 10
scalar Ethernet.s0.eth.mac full-duplex 1
scalar Ethernet.s0.eth.mac "frames/sec sent" 3.5
scalar Ethernet.s0.eth.mac "frames/sec rcvd" 2.2
scalar Ethernet.s0.eth.mac "bits/sec sent" 33901.6
scalar Ethernet.s0.eth.mac "bits/sec rcvd" 18482.4
scalar Ethernet.s0.eth.mac "rx channel idle (%)" 98.528696
scalar Ethernet.s0.eth.mac "rx channel utilization (%)" 1.471304
scalar Ethernet.s0.eth.mac "rx channel collision (%)" 0
scalar Ethernet.s0.eth.mac collisions 0
scalar Ethernet.s0.eth.mac backoffs 0
scalar Ethernet.s0.eth.mac backoffSlotsGenerated:count 0
attr interpolationmode none
attr recordingmode count
attr title "backoff, count"
scalar Ethernet.s0.eth.mac collision:count 0
attr interpolationmode none
attr recordingmode count
attr title "collision, count"
scalar Ethernet.s0.eth.mac rxPausePkUnits:count 0
attr interpolationmode none
attr recordingmode count
attr title "pause units received, count"
scalar Ethernet.s0.eth.mac rxPausePkUnits:sum 0
attr interpolationmode none
attr recordingmode sum
attr title "pause units received, sum"
scalar Ethernet.s0.eth.mac txPausePkUnits:count 0
attr interpolationmode none
attr recordingmode count
attr title "pause units sent, count"
scalar Ethernet.s0.eth.mac txPausePkUnits:sum 0
attr interpolationmode none
attr recordingmode sum
attr title "pause units sent, sum"
scalar Ethernet.s0.eth.mac rxPkOk:count 22
attr interpolationmode none
attr recordingmode count
attr source rxPkOk
attr title "packets received OK, count"
scalar Ethernet.s0.eth.mac rxPkOk:sum(packetBytes) 23103
attr interpolationmode none
attr recordingmode sum(packetBytes)
attr source rxPkOk
attr title "packets received OK, sum(packetBytes)"
scalar Ethernet.s0.eth.mac txPk:count 35
attr interpolationmode none
attr recordingmode count
attr source packetSentToLower
attr title "packets transmitted, count"
scalar Ethernet.s0.eth.mac txPk:sum(packetBytes) 42377
attr interpolationmode none
attr recordingmode sum(packetBytes)
attr source packetSentToLower
attr title "packets transmitted, sum(packetBytes)"
scalar Ethernet.s0.eth.mac packetReceivedFromUpper:count 35
attr interpolationmode none
attr recordingmode count
attr source packetReceivedFromUpper
attr title "packet bytes from higher layer, count"
scalar Ethernet.s0.eth.mac packetReceivedFromUpper:sum(packetBytes) 42377
attr interpolationmode none
attr recordingmode sum(packetBytes)
attr source packetReceivedFromUpper
attr title "packet bytes from higher layer, sum(packetBytes)"
scalar Ethernet.s0.eth.mac passedUpPk:count 22
attr interpolationmode none
attr recordingmode count
attr source packetSentToUpper
attr title "packets passed to higher layer, count"
scalar Ethernet.s0.eth.mac passedUpPk:sum(packetBytes) 23103
attr interpolationmode none
attr recordingmode sum(packetBytes)
attr source packetSentToUpper
attr title "packets passed to higher layer, sum(packetBytes)"
scalar Ethernet.s0.eth.mac packetDropIncorrectlyReceived:count 0
attr interpolationmode none
attr recordingmode count
attr source packetDropReasonIsIncorrectlyReceived(packetDropped)
attr title "packet drop: incorrectly received, count"
scalar Ethernet.s0.eth.mac packetDropIncorrectlyReceived:sum(packetBytes) 0
attr interpolationmode none
attr recordingmode sum(packetBytes)
attr source packetDropReasonIsIncorrectlyReceived(packetDropped)
attr title "packet drop: incorrectly received, sum(packetBytes)"
scalar Ethernet.s0.eth.mac packetDropInterfaceDown:count 0
attr interpolationmode none
attr recordingmode count
attr source packetDropReasonIsInterfaceDown(packetDropped)
attr title "packet drop: interface down, count"
scalar Ethernet.s0.eth.mac packetDropInterfaceDown:sum(packetBytes) 0
attr interpolationmode none
attr recordingmode sum(packetBytes)
attr source packetDropReasonIsInterfaceDown(packetDropped)
attr title "packet drop: interface down, sum(packetBytes)"
scalar Ethernet.s0.eth.mac packetDropNotAddressedToUs:count 138
attr interpolationmode none
attr recordingmode count
attr source packetDropReasonIsNotAddressedToUs(packetDropped)
attr title "packet drop: not addressed to us, count"
scalar Ethernet.s0.eth.mac packetDropNotAddressedToUs:sum(packetBytes) 159530
attr interpolationmode none
attr recordingmode sum(packetBytes)
attr source packetDropReasonIsNotAddressedToUs(packetDropped)
attr title "packet drop: not addressed to us, sum(packetBytes)"
par Ethernet.s0.eth typename "\"inet.linklayer.ethernet.EthernetInterface\""
par Ethernet.s0.eth displayStringTextFormat "\"%a (%i)\\n%m\""
par Ethernet.s0.eth recordPcap false
par Ethernet.s0.eth numPcapRecorders 0
par Ethernet.s0.eth interfaceTableModule "\"Ethernet.s0.interfaceTable\""
par Ethernet.s0.eth protocol "\"ethernetmac\""
par Ethernet.s0.eth address "\"0A-AA-00-00-00-01\""
attr mutable ""
par Ethernet.s0.eth duplexMode true
par Ethernet.s0.eth csmacdSupport true
par Ethernet.s0.eth bitrate 0bps
attr unit bps
par Ethernet.s0.eth fcsMode "\"declared\""
attr enum declared,computed
scalar Ethernet.s0.eth packetDropInterfaceDown:count 0
attr interpolationmode none
attr recordingmode count
attr source packetDropReasonIsInterfaceDown(packetDropped)
attr title "packet drops: interface down, count"
scalar Ethernet.s0.eth packetDropInterfaceDown:sum(packetBytes) 0
attr interpolationmode none
attr recordingmode sum(packetBytes)
attr source packetDropReasonIsInterfaceDown(packetDropped)
attr title "packet drops: interface down, sum(packetBytes)"
scalar Ethernet.s0.eth packetDropNoCarrier:count 0
attr interpolationmode none
attr recordingmode count
attr source packetDropReasonIsNoCarrier(packetDropped)
attr title "packet drops: no carrier, count"
scalar Ethernet.s0.eth packetDropNoCarrier:sum(packetBytes) 0
attr interpolationmode none
attr recordingmode sum(packetBytes)
attr source packetDropReasonIsNoCarrier(packetDropped)
attr title "packet drops: no carrier, sum(packetBytes)"
par Ethernet.s0 typename "\"inet.node.ethernet.EthernetHost\""
par Ethernet.s0 hasStatus false
par Ethernet.s0 csmacdSupport true
par Ethernet.s0 fcsMode "\"declared\""
attr enum declared,computed
par Ethernet.configurator typename "\"inet.networklayer.configurator.ipv4.Ipv4NetworkConfigurator\""
par Ethernet.configurator minLinkWeight 0.001
par Ethernet.configurator configureIsolatedNetworksSeparatly false
par Ethernet.configurator config "<config>...</config> at content:1"
par Ethernet.configurator assignAddresses true
par Ethernet.configurator assignUniqueAddresses true
par Ethernet.configurator assignDisjunctSubnetAddresses true
par Ethernet.configurator addStaticRoutes true
par Ethernet.configurator addDefaultRoutes true
par Ethernet.configurator addSubnetRoutes true
par Ethernet.configurator addDirectRoutes true
par Ethernet.configurator optimizeRoutes true
par Ethernet.configurator dumpTopology false
par Ethernet.configurator dumpLinks false
par Ethernet.configurator dumpAddresses false
par Ethernet.configurator dumpRoutes false
par Ethernet.configurator dumpConfig "\"\""
par Ethernet.s1.eth.phys$o.channel typename "\"ned.IdealChannel\""
par Ethernet.s1.ethg$i.channel typename "\"ned.IdealChannel\""
par Ethernet.s1.interfaceTable typename "\"inet.networklayer.common.InterfaceTable\""
par Ethernet.s1.interfaceTable displayAddresses false
par Ethernet.s1.cli typename "\"inet.applications.ethernet.EtherAppClient\""
par Ethernet.s1.cli interfaceTableModule "\"Ethernet.s1.interfaceTable\""
par Ethernet.s1.cli destAddress "\"s0\""
par Ethernet.s1.cli interface "\"eth\""
par Ethernet.s1.cli startTime 0.89856s
attr unit s
par Ethernet.s1.cli stopTime -1s
attr unit s
par Ethernet.s1.cli localSAP 240
par Ethernet.s1.cli remoteSAP 241
par Ethernet.s1.cli sendInterval exponential(1s)
attr unit s
par Ethernet.s1.cli reqLength "intuniform(50, 1400)*1B"
attr unit B
par Ethernet.s1.cli respLength "intWithUnit(truncnormal(3000B, 3000B))"
attr unit B
par Ethernet.s1.cli stopOperationExtraTime -1s
attr unit s
par Ethernet.s1.cli stopOperationTimeout 2s
attr unit s
scalar Ethernet.s1.cli packetReceived:count 27
attr interpolationmode none
attr recordingmode count
attr source packetReceived
attr title "packets received, count"
scalar Ethernet.s1.cli packetReceived:sum(packetBytes) 35450
attr interpolationmode none
attr recordingmode sum(packetBytes)
attr source packetReceived
attr title "packets received, sum(packetBytes)"
statistic Ethernet.s1.cli endToEndDelay:histogram
field count 27
field mean 0.0036256111111111
field stddev 0.0022936702018537
field min 0.0002713
field max 0.0074801
field sum 0.0978915
field sqrsum 0.00049170050795
attr interpolationmode none
attr recordingmode histogram
attr source dataAge(packetReceived)
attr title "end-to-end delay"
attr unit s
bin	-inf	0
bin	0	0
bin	0.0002	1
bin	0.0004	0
bin	0.0006	0
bin	0.0008	0
bin	0.001	0
bin	0.0012	6
bin	0.0014	1
bin	0.0016	0
bin	0.0018	0
bin	0.002	1
bin	0.0022	0
bin	0.0024	4
bin	0.0026	0
bin	0.0028	0
bin	0.003	0
bin	0.0032	0
bin	0.0034	1
bin	0.0036	3
bin	0.0038	0
bin	0.004	0
bin	0.0042	0
bin	0.0044	0
bin	0.0046	0
bin	0.0048	3
bin	0.005	0
bin	0.0052	0
bin	0.0054	0
bin	0.0056	0
bin	0.0058	0
bin	0.006	3
bin	0.0062	0
bin	0.0064	0
bin	0.0066	0
bin	0.0068	0
bin	0.007	1
bin	0.0072	2
bin	0.0074	1
bin	0.0076	0
bin	0.0078	0
bin	0.008	0
bin	0.0082	0
bin	0.0084	0
bin	0.0086	0
bin	0.0088	0
bin	0.009	0
bin	0.0092	0
bin	0.0094	0
scalar Ethernet.s1.cli packetSent:count 7
attr interpolationmode none
attr recordingmode count
attr source packetSent
attr title "packets sent, count"
scalar Ethernet.s1.cli packetSent:sum(packetBytes) 5634
attr interpolationmode none
attr recordingmode sum(packetBytes)
attr source packetSent
attr title "packets sent, sum(packetBytes)"
par Ethernet.s1.srv typename "\"inet.applications.ethernet.EtherAppServer\""
par Ethernet.s1.srv localSAP 241
par Ethernet.s1.srv stopOperationExtraTime -1s
attr unit s
par Ethernet.s1.srv stopOperationTimeout 2s
attr unit s
scalar Ethernet.s1.srv packetReceived:count 7
attr interpolationmode none
attr recordingmode count
attr source packetReceived
attr title "packets received, count"
scalar Ethernet.s1.srv packetReceived:sum(packetBytes) 4934
attr interpolationmode none
attr recordingmode sum(packetBytes)
attr source packetReceived
attr title "packets received, sum(packetBytes)"
statistic Ethernet.s1.srv endToEndDelay:histogram
field count 7
field mean 0.00058718571428571
field stddev 0.00033361388574504
field min 8.17e-05
field max 0.0009969
field sum 0.0041103
field sqrsum 3.08129879e-06
attr interpolationmode none
attr recordingmode histogram
attr source dataAge(packetReceived)
attr title "end-to-end delay"
attr unit s
bin	-inf	0
bin	0	0
bin	2e-05	0
bin	4e-05	0
bin	6e-05	0
bin	8e-05	1
bin	0.0001	0
bin	0.00012	0
bin	0.00014	0
bin	0.00016	0
bin	0.00018	0
bin	0.0002	0
bin	0.00022	0
bin	0.00024	0
bin	0.00026	0
bin	0.00028	0
bin	0.0003	1
bin	0.00032	0
bin	0.00034	0
bin	0.00036	0
bin	0.00038	0
bin	0.0004	1
bin	0.00042	0
bin	0.00044	0
bin	0.00046	0
bin	0.00048	0
bin	0.0005	0
bin	0.00052	0
bin	0.00054	0
bin	0.00056	0
bin	0.00058	0
bin	0.0006	0
bin	0.00062	0
bin	0.00064	0
bin	0.00066	0
bin	0.00068	0
bin	0.0007	1
bin	0.00072	1
bin	0.00074	0
bin	0.00076	0
bin	0.00078	0
bin	0.0008	0
bin	0.00082	0
bin	0.00084	0
bin	0.00086	0
bin	0.00088	1
bin	0.0009	0
bin	0.00092	0
bin	0.00094	0
bin	0.00096	0
bin	0.00098	1
bin	0.001	0
bin	0.00102	0
bin	0.00104	0
bin	0.00106	0
bin	0.00108	0
bin	0.0011	0
bin	0.00112	0
bin	0.00114	0
bin	0.00116	0
bin	0.00118	0
bin	0.0012	0
bin	0.00122	0
bin	0.00124	0
scalar Ethernet.s1.srv packetSent:count 15
attr interpolationmode none
attr recordingmode count
attr source packetSent
attr title "packets sent, count"
scalar Ethernet.s1.srv packetSent:sum(packetBytes) 17007
attr interpolationmode none
attr recordingmode sum(packetBytes)
attr source packetSent
attr title "packets sent, sum(packetBytes)"
par Ethernet.s1.dp typename "\"inet.common.MessageDispatcher\""
par Ethernet.s1.dp displayStringTextFormat "\"processed %p pk (%l)\""
par Ethernet.s1.dp forwardServiceRegistration true
par Ethernet.s1.dp forwardProtocolRegistration true
par Ethernet.s1.llc typename "\"inet.linklayer.ieee8022.Ieee8022Llc\""
par Ethernet.s1.llc registerProtocol true
par Ethernet.s1.encap typename "\"inet.linklayer.ethernet.basic.EthernetEncapsulation\""
par Ethernet.s1.encap registerProtocol true
par Ethernet.s1.encap interfaceTableModule "\"Ethernet.s1.interfaceTable\""
par Ethernet.s1.encap fcsMode "\"declared\""
attr enum declared,computed
par Ethernet.s1.encap stopOperationExtraTime -1s
attr unit s
par Ethernet.s1.encap stopOperationTimeout 2s
attr unit s
scalar Ethernet.s1.encap pauseSent:count 0
attr recordingmode count
attr title "pause sent, count"
scalar Ethernet.s1.encap pauseSent:sum 0
attr recordingmode sum
attr title "pause sent, sum"
scalar Ethernet.s1.encap decapPk:count 34
attr interpolationmode none
attr recordingmode count
attr source decapPk
attr title "packets decapsulated, count"
scalar Ethernet.s1.encap decapPk:sum(packetBytes) 40486
attr interpolationmode none
attr recordingmode sum(packetBytes)
attr source decapPk
attr title "packets decapsulated, sum(packetBytes)"
scalar Ethernet.s1.encap encapPk:count 22
attr interpolationmode none
attr recordingmode count
attr source encapPk
attr title "packets encapsulated, count"
scalar Ethernet.s1.encap encapPk:sum(packetBytes) 22707
attr interpolationmode none
attr recordingmode sum(packetBytes)
attr source encapPk
attr title "packets encapsulated, sum(packetBytes)"
par Ethernet.s1.li typename "\"inet.common.MessageDispatcher\""
par Ethernet.s1.li displayStringTextFormat "\"processed %p pk (%l)\""
par Ethernet.s1.li forwardServiceRegistration true
par Ethernet.s1.li forwardProtocolRegistration true
par Ethernet.s1.eth.mac.phys$o.channel typename "\"ned.IdealChannel\""
par Ethernet.s1.eth.phys$i.channel typename "\"ned.IdealChannel\""
par Ethernet.s1.eth.upperLayerIn.channel typename "\"ned.IdealChannel\""
par Ethernet.s1.eth.mac.upperLayerOut.channel typename "\"ned.IdealChannel\""
par Ethernet.s1.eth.queue typename "\"inet.linklayer.ethernet.common.EthernetQueue\""
par Ethernet.s1.eth.queue displayStringTextFormat "\"contains %p pk (%l) pushed %u\\npulled %o removed %r dropped %d\""
par Ethernet.s1.eth.queue packetCapacity 1000
par Ethernet.s1.eth.queue dataCapacity -1b
attr unit b
par Ethernet.s1.eth.queue dropperClass "\"inet::queueing::PacketAtCollectionEndDropper\""
par Ethernet.s1.eth.queue comparatorClass "\"inet::EthernetFrameTypeComparator\""
par Ethernet.s1.eth.queue bufferModule "\"\""
scalar Ethernet.s1.eth.queue queueLength:last 0
attr autoWarmupFilter false
attr interpolationmode sample-hold
attr recordingmode last
attr source "warmup(atomic(constant0(packetPushEnded) + count(packetPushStarted) - count(packetPulled) - count(packetRemoved) - count(packetDropped)))"
attr title "queue length, last"
attr unit pk
scalar Ethernet.s1.eth.queue queueLength:max 3
attr autoWarmupFilter false
attr interpolationmode sample-hold
attr recordingmode max
attr source "warmup(atomic(constant0(packetPushEnded) + count(packetPushStarted) - count(packetPulled) - count(packetRemoved) - count(packetDropped)))"
attr title "queue length, max"
attr unit pk
scalar Ethernet.s1.eth.queue queueLength:timeavg 0.0020053816299216
attr autoWarmupFilter false
attr interpolationmode sample-hold
attr recordingmode timeavg
attr source "warmup(atomic(constant0(packetPushEnded) + count(packetPushStarted) - count(packetPulled) - count(packetRemoved) - count(packetDropped)))"
attr title "queue length, timeavg"
attr unit pk
scalar Ethernet.s1.eth.queue queueBitLength:last 0
attr autoWarmupFilter false
attr interpolationmode sample-hold
attr recordingmode last
attr source "warmup(atomic(constant0(packetPushEnded) + sum(packetLength(packetPushStarted)) - sum(packetLength(packetPulled)) - sum(packetLength(packetRemoved)) - sum(packetLength(packetDropped))))"
attr title "queue bit length, last"
attr unit b
scalar Ethernet.s1.eth.queue queueBitLength:max 32704
attr autoWarmupFilter false
attr interpolationmode sample-hold
attr recordingmode max
attr source "warmup(atomic(constant0(packetPushEnded) + sum(packetLength(packetPushStarted)) - sum(packetLength(packetPulled)) - sum(packetLength(packetRemoved)) - sum(packetLength(packetDropped))))"
attr title "queue bit length, max"
attr unit b
scalar Ethernet.s1.eth.queue queueBitLength:timeavg 17.792815357533
attr autoWarmupFilter false
attr interpolationmode sample-hold
attr recordingmode timeavg
attr source "warmup(atomic(constant0(packetPushEnded) + sum(packetLength(packetPushStarted)) - sum(packetLength(packetPulled)) - sum(packetLength(packetRemoved)) - sum(packetLength(packetDropped))))"
attr title "queue bit length, timeavg"
attr unit b
statistic Ethernet.s1.eth.queue queueingTime:histogram
field count 22
field mean 0.00083890909090909
field stddev 0.0012812804439715
field min 0
field max 0.0036912
field sum 0.018456
field sqrsum 4.995817728e-05
attr interpolationmode none
attr recordingmode histogram
attr source queueingTime(packetPulled)
attr title "queueing times"
attr unit s
bin	-inf	0
bin	0	14
bin	0.0001	0
bin	0.0002	0
bin	0.0003	0
bin	0.0004	0
bin	0.0005	0
bin	0.0006	0
bin	0.0007	0
bin	0.0008	0
bin	0.0009	0
bin	0.001	0
bin	0.0011	0
bin	0.0012	3
bin	0.0013	0
bin	0.0014	0
bin	0.0015	0
bin	0.0016	0
bin	0.0017	0
bin	0.0018	0
bin	0.0019	0
bin	0.002	0
bin	0.0021	0
bin	0.0022	0
bin	0.0023	0
bin	0.0024	3
bin	0.0025	0
bin	0.0026	0
bin	0.0027	0
bin	0.0028	0
bin	0.0029	0
bin	0.003	0
bin	0.0031	0
bin	0.0032	0
bin	0.0033	0
bin	0.0034	0
bin	0.0035	0
bin	0.0036	2
bin	0.0037	0
bin	0.0038	0
bin	0.0039	0
bin	0.004	0
bin	0.0041	0
bin	0.0042	0
bin	0.0043	0
bin	0.0044	0
bin	0.0045	0
bin	0.0046	0
bin	0.0047	0
scalar Ethernet.s1.eth.queue outgoingPackets:count 22
attr recordingmode count
attr source packetPulled
attr title "outgoing packets, count"
attr unit pk
scalar Ethernet.s1.eth.queue outgoingPacketLengths:sum 184824
attr interpolationmode none
attr recordingmode sum
attr source packetLength(packetPulled)
attr title "outgoing packet lengths, sum"
attr unit b
statistic Ethernet.s1.eth.queue outgoingPacketLengths:histogram
field count 22
field mean 8401.0909090909
field stddev 3740.5497292586
field min 1168
field max 12144
field sum 184824
field sqrsum 1846549184
attr interpolationmode none
attr recordingmode histogram
attr source packetLength(packetPulled)
attr title "outgoing packet lengths"
attr unit b
bin	-inf	0
bin	0	0
bin	200	0
bin	400	0
bin	600	0
bin	800	0
bin	1000	1
bin	1200	0
bin	1400	0
bin	1600	0
bin	1800	0
bin	2000	0
bin	2200	0
bin	2400	0
bin	2600	0
bin	2800	0
bin	3000	1
bin	3200	0
bin	3400	0
bin	3600	2
bin	3800	1
bin	4000	0
bin	4200	0
bin	4400	0
bin	4600	0
bin	4800	0
bin	5000	0
bin	5200	1
bin	5400	0
bin	5600	0
bin	5800	0
bin	6000	1
bin	6200	0
bin	6400	1
bin	6600	0
bin	6800	2
bin	7000	0
bin	7200	0
bin	7400	0
bin	7600	0
bin	7800	0
bin	8000	0
bin	8200	0
bin	8400	1
bin	8600	0
bin	8800	0
bin	9000	0
bin	9200	0
bin	9400	1
bin	9600	0
bin	9800	0
bin	10000	0
bin	10200	0
bin	10400	0
bin	10600	0
bin	10800	0
bin	11000	2
bin	11200	0
bin	11400	0
bin	11600	0
bin	11800	0
bin	12000	8
bin	12200	0
bin	12400	0
bin	12600	0
bin	12800	0
bin	13000	0
bin	13200	0
bin	13400	0
bin	13600	0
bin	13800	0
bin	14000	0
bin	14200	0
bin	14400	0
bin	14600	0
bin	14800	0
bin	15000	0
statistic Ethernet.s1.eth.queue flowQueueingTime:histogram
field count 0
field mean nan
field stddev nan
field min nan
field max nan
field sum 0
field sqrsum 0
attr interpolationmode none
attr recordingmode histogram
attr source queueingTime(demuxFlow(packetPulled))
attr title "flow queueing times"
attr unit s
bin	-inf	0
bin	0	0
bin	1	0
scalar Ethernet.s1.eth.queue incomingPackets:count 22
attr recordingmode count
attr source packetPushStarted
attr title "incoming packets, count"
attr unit pk
scalar Ethernet.s1.eth.queue incomingPacketLengths:sum 184824
attr interpolationmode none
attr recordingmode sum
attr source packetLength(packetPushStarted)
attr title "incoming packet lengths, sum"
attr unit b
statistic Ethernet.s1.eth.queue incomingPacketLengths:histogram
field count 22
field mean 8401.0909090909
field stddev 3740.5497292586
field min 1168
field max 12144
field sum 184824
field sqrsum 1846549184
attr interpolationmode none
attr recordingmode histogram
attr source packetLength(packetPushStarted)
attr title "incoming packet lengths"
attr unit b
bin	-inf	0
bin	0	0
bin	200	0
bin	400	0
bin	600	0
bin	800	0
bin	1000	1
bin	1200	0
bin	1400	0
bin	1600	0
bin	1800	0
bin	2000	0
bin	2200	0
bin	2400	0
bin	2600	0
bin	2800	0
bin	3000	1
bin	3200	0
bin	3400	0
bin	3600	2
bin	3800	1
bin	4000	0
bin	4200	0
bin	4400	0
bin	4600	0
bin	4800	0
bin	5000	0
bin	5200	1
bin	5400	0
bin	5600	0
bin	5800	0
bin	6000	1
bin	6200	0
bin	6400	1
bin	6600	0
bin	6800	2
bin	7000	0
bin	7200	0
bin	7400	0
bin	7600	0
bin	7800	0
bin	8000	0
bin	8200	0
bin	8400	1
bin	8600	0
bin	8800	0
bin	9000	0
bin	9200	0
bin	9400	1
bin	9600	0
bin	9800	0
bin	10000	0
bin	10200	0
bin	10400	0
bin	10600	0
bin	10800	0
bin	11000	2
bin	11200	0
bin	11400	0
bin	11600	0
bin	11800	0
bin	12000	8
bin	12200	0
bin	12400	0
bin	12600	0
bin	12800	0
bin	13000	0
bin	13200	0
bin	13400	0
bin	13600	0
bin	13800	0
bin	14000	0
bin	14200	0
bin	14400	0
bin	14600	0
bin	14800	0
bin	15000	0
scalar Ethernet.s1.eth.queue droppedPacketsQueueOverflow:count 0
attr interpolationmode none
attr recordingmode count
attr source packetDropReasonIsQueueOverflow(packetDropped)
attr title "dropped packets: queue overflow, count"
attr unit pk
scalar Ethernet.s1.eth.queue droppedPacketLengthsQueueOverflow:sum 0
attr interpolationmode none
attr recordingmode sum
attr source packetLength(packetDropReasonIsQueueOverflow(packetDropped))
attr title "dropped packet lengths: queue overflow, sum"
attr unit b
par Ethernet.s1.eth.mac typename "\"inet.linklayer.ethernet.basic.EthernetCsmaMac\""
par Ethernet.s1.eth.mac interfaceTableModule "\"Ethernet.s1.interfaceTable\""
par Ethernet.s1.eth.mac displayStringTextFormat "\"rate: %b\\nsent: %s, rcvd: %r\\nqueue: %q, drop: %d\""
par Ethernet.s1.eth.mac sendRawBytes false
par Ethernet.s1.eth.mac promiscuous false
par Ethernet.s1.eth.mac duplexMode true
par Ethernet.s1.eth.mac frameBursting true
par Ethernet.s1.eth.mac mtu 1500B
attr unit B
par Ethernet.s1.eth.mac fcsMode "\"declared\""
attr enum declared,computed
par Ethernet.s1.eth.mac stopOperationExtraTime -1s
attr unit s
par Ethernet.s1.eth.mac stopOperationTimeout 2s
attr unit s
scalar Ethernet.s1.eth.mac "simulated time" 10
scalar Ethernet.s1.eth.mac full-duplex 1
scalar Ethernet.s1.eth.mac "frames/sec sent" 2.2
scalar Ethernet.s1.eth.mac "frames/sec rcvd" 3.4
scalar Ethernet.s1.eth.mac "bits/sec sent" 18482.4
scalar Ethernet.s1.eth.mac "bits/sec rcvd" 32878.4
scalar Ethernet.s1.eth.mac "rx channel idle (%)" 98.37857874227
scalar Ethernet.s1.eth.mac "rx channel utilization (%)" 1.604032
scalar Ethernet.s1.eth.mac "rx channel collision (%)" 0.01738925773
scalar Ethernet.s1.eth.mac collisions 1
scalar Ethernet.s1.eth.mac backoffs 0
scalar Ethernet.s1.eth.mac backoffSlotsGenerated:count 0
attr interpolationmode none
attr recordingmode count
attr title "backoff, count"
scalar Ethernet.s1.eth.mac collision:count 1
attr interpolationmode none
attr recordingmode count
attr title "collision, count"
scalar Ethernet.s1.eth.mac rxPausePkUnits:count 0
attr interpolationmode none
attr recordingmode count
attr title "pause units received, count"
scalar Ethernet.s1.eth.mac rxPausePkUnits:sum 0
attr interpolationmode none
attr recordingmode sum
attr title "pause units received, sum"
scalar Ethernet.s1.eth.mac txPausePkUnits:count 0
attr interpolationmode none
attr recordingmode count
attr title "pause units sent, count"
scalar Ethernet.s1.eth.mac txPausePkUnits:sum 0
attr interpolationmode none
attr recordingmode sum
attr title "pause units sent, sum"
scalar Ethernet.s1.eth.mac rxPkOk:count 34
attr interpolationmode none
attr recordingmode count
attr source rxPkOk
attr title "packets received OK, count"
scalar Ethernet.s1.eth.mac rxPkOk:sum(packetBytes) 41098
attr interpolationmode none
attr recordingmode sum(packetBytes)
attr source rxPkOk
attr title "packets received OK, sum(packetBytes)"
scalar Ethernet.s1.eth.mac txPk:count 22
attr interpolationmode none
attr recordingmode count
attr source packetSentToLower
attr title "packets transmitted, count"
scalar Ethernet.s1.eth.mac txPk:sum(packetBytes) 23103
attr interpolationmode none
attr recordingmode sum(packetBytes)
attr source packetSentToLower
attr title "packets transmitted, sum(packetBytes)"
scalar Ethernet.s1.eth.mac packetReceivedFromUpper:count 22
attr interpolationmode none
attr recordingmode count
attr source packetReceivedFromUpper
attr title "packet bytes from higher layer, count"
scalar Ethernet.s1.eth.mac packetReceivedFromUpper:sum(packetBytes) 23103
attr interpolationmode none
attr recordingmode sum(packetBytes)
attr source packetReceivedFromUpper
attr title "packet bytes from higher layer, sum(packetBytes)"
scalar Ethernet.s1.eth.mac passedUpPk:count 34
attr interpolationmode none
attr recordingmode count
attr source packetSentToUpper
attr title "packets passed to higher layer, count"
scalar Ethernet.s1.eth.mac passedUpPk:sum(packetBytes) 41098
attr interpolationmode none
attr recordingmode sum(packetBytes)
attr source packetSentToUpper
attr title "packets passed to higher layer, sum(packetBytes)"
scalar Ethernet.s1.eth.mac packetDropIncorrectlyReceived:count 0
attr interpolationmode none
attr recordingmode count
attr source packetDropReasonIsIncorrectlyReceived(packetDropped)
attr title "packet drop: incorrectly received, count"
scalar Ethernet.s1.eth.mac packetDropIncorrectlyReceived:sum(packetBytes) 0
attr interpolationmode none
attr recordingmode sum(packetBytes)
attr source packetDropReasonIsIncorrectlyReceived(packetDropped)
attr title "packet drop: incorrectly received, sum(packetBytes)"
scalar Ethernet.s1.eth.mac packetDropInterfaceDown:count 0
attr interpolationmode none
attr recordingmode count
attr source packetDropReasonIsInterfaceDown(packetDropped)
attr title "packet drop: interface down, count"
scalar Ethernet.s1.eth.mac packetDropInterfaceDown:sum(packetBytes) 0
attr interpolationmode none
attr recordingmode sum(packetBytes)
attr source packetDropReasonIsInterfaceDown(packetDropped)
attr title "packet drop: interface down, sum(packetBytes)"
scalar Ethernet.s1.eth.mac packetDropNotAddressedToUs:count 137
attr interpolationmode none
attr recordingmode count
attr source packetDropReasonIsNotAddressedToUs(packetDropped)
attr title "packet drop: not addressed to us, count"
scalar Ethernet.s1.eth.mac packetDropNotAddressedToUs:sum(packetBytes) 158038
attr interpolationmode none
attr recordingmode sum(packetBytes)
attr source packetDropReasonIsNotAddressedToUs(packetDropped)
attr title "packet drop: not addressed to us, sum(packetBytes)"
par Ethernet.s1.eth typename "\"inet.linklayer.ethernet.EthernetInterface\""
par Ethernet.s1.eth displayStringTextFormat "\"%a (%i)\\n%m\""
par Ethernet.s1.eth recordPcap false
par Ethernet.s1.eth numPcapRecorders 0
par Ethernet.s1.eth interfaceTableModule "\"Ethernet.s1.interfaceTable\""
par Ethernet.s1.eth protocol "\"ethernetmac\""
par Ethernet.s1.eth address "\"0A-AA-00-00-00-02\""
attr mutable ""
par Ethernet.s1.eth duplexMode true
par Ethernet.s1.eth csmacdSupport true
par Ethernet.s1.eth bitrate 0bps
attr unit bps
par Ethernet.s1.eth fcsMode "\"declared\""
attr enum declared,computed
scalar Ethernet.s1.eth packetDropInterfaceDown:count 0
attr interpolationmode none
attr recordingmode count
attr source packetDropReasonIsInterfaceDown(packetDropped)
attr title "packet drops: interface down, count"
scalar Ethernet.s1.eth packetDropInterfaceDown:sum(packetBytes) 0
attr interpolationmode none
attr recordingmode sum(packetBytes)
attr source packetDropReasonIsInterfaceDown(packetDropped)
attr title "packet drops: interface down, sum(packetBytes)"
scalar Ethernet.s1.eth packetDropNoCarrier:count 0
attr interpolationmode none
attr recordingmode count
attr source packetDropReasonIsNoCarrier(packetDropped)
attr title "packet drops: no carrier, count"
scalar Ethernet.s1.eth packetDropNoCarrier:sum(packetBytes) 0
attr interpolationmode none
attr recordingmode sum(packetBytes)
attr source packetDropReasonIsNoCarrier(packetDropped)
attr title "packet drops: no carrier, sum(packetBytes)"
par Ethernet.s1 typename "\"inet.node.ethernet.EthernetHost\""
par Ethernet.s1 hasStatus false
par Ethernet.s1 csmacdSupport true
par Ethernet.s1 fcsMode "\"declared\""
attr enum declared,computed
par Ethernet.s2.eth.phys$o.channel typename "\"ned.IdealChannel\""
par Ethernet.s2.ethg$i.channel typename "\"ned.IdealChannel\""
par Ethernet.s2.interfaceTable typename "\"inet.networklayer.common.InterfaceTable\""
par Ethernet.s2.interfaceTable displayAddresses false
par Ethernet.s2.cli typename "\"inet.applications.ethernet.EtherAppClient\""
par Ethernet.s2.cli interfaceTableModule "\"Ethernet.s2.interfaceTable\""
par Ethernet.s2.cli destAddress "\"s3\""
par Ethernet.s2.cli interface "\"eth\""
par Ethernet.s2.cli startTime 1.25593s
attr unit s
par Ethernet.s2.cli stopTime -1s
attr unit s
par Ethernet.s2.cli localSAP 240
par Ethernet.s2.cli remoteSAP 241
par Ethernet.s2.cli sendInterval exponential(1s)
attr unit s
par Ethernet.s2.cli reqLength "intuniform(50, 1400)*1B"
attr unit B
par Ethernet.s2.cli respLength "intWithUnit(truncnormal(3000B, 3000B))"
attr unit B
par Ethernet.s2.cli stopOperationExtraTime -1s
attr unit s
par Ethernet.s2.cli stopOperationTimeout 2s
attr unit s
scalar Ethernet.s2.cli packetReceived:count 40
attr interpolationmode none
attr recordingmode count
attr source packetReceived
attr title "packets received, count"
scalar Ethernet.s2.cli packetReceived:sum(packetBytes) 52259
attr interpolationmode none
attr recordingmode sum(packetBytes)
attr source packetReceived
attr title "packets received, sum(packetBytes)"
statistic Ethernet.s2.cli endToEndDelay:histogram
field count 40
field mean 0.0035908
field stddev 0.0020380895282416
field min 0.0012209
field max 0.0075601
field sum 0.143632
field sqrsum 0.00067775233368
attr interpolationmode none
attr recordingmode histogram
attr source dataAge(packetReceived)
attr title "end-to-end delay"
attr unit s
bin	-inf	0
bin	0	0
bin	0.0002	0
bin	0.0004	0
bin	0.0006	0
bin	0.0008	0
bin	0.001	0
bin	0.0012	9
bin	0.0014	1
bin	0.0016	0
bin	0.0018	0
bin	0.002	0
bin	0.0022	0
bin	0.0024	8
bin	0.0026	0
bin	0.0028	0
bin	0.003	2
bin	0.0032	0
bin	0.0034	0
bin	0.0036	6
bin	0.0038	0
bin	0.004	0
bin	0.0042	0
bin	0.0044	1
bin	0.0046	2
bin	0.0048	3
bin	0.005	0
bin	0.0052	0
bin	0.0054	0
bin	0.0056	0
bin	0.0058	0
bin	0.006	3
bin	0.0062	0
bin	0.0064	1
bin	0.0066	0
bin	0.0068	0
bin	0.007	0
bin	0.0072	2
bin	0.0074	2
bin	0.0076	0
bin	0.0078	0
bin	0.008	0
bin	0.0082	0
bin	0.0084	0
bin	0.0086	0
bin	0.0088	0
bin	0.009	0
bin	0.0092	0
scalar Ethernet.s2.cli packetSent:count 10
attr interpolationmode none
attr recordingmode count
attr source packetSent
attr title "packets sent, count"
scalar Ethernet.s2.cli packetSent:sum(packetBytes) 6798
attr interpolationmode none
attr recordingmode sum(packetBytes)
attr source packetSent
attr title "packets sent, sum(packetBytes)"
par Ethernet.s2.srv typename "\"inet.applications.ethernet.EtherAppServer\""
par Ethernet.s2.srv localSAP 241
par Ethernet.s2.srv stopOperationExtraTime -1s
attr unit s
par Ethernet.s2.srv stopOperationTimeout 2s
attr unit s
scalar Ethernet.s2.srv packetReceived:count 2
attr interpolationmode none
attr recordingmode count
attr source packetReceived
attr title "packets received, count"
scalar Ethernet.s2.srv packetReceived:sum(packetBytes) 854
attr interpolationmode none
attr recordingmode sum(packetBytes)
attr source packetReceived
attr title "packets received, sum(packetBytes)"
statistic Ethernet.s2.srv endToEndDelay:histogram
field count 2
field mean 0.0003649
field stddev 0.0002964191626734
field min 0.0001553
field max 0.0005745
field sum 0.0007298
field sqrsum 3.5416834e-07
attr interpolationmode none
attr recordingmode histogram
attr source dataAge(packetReceived)
attr title "end-to-end delay"
attr unit s
bin	-inf	0
bin	5e-05	0
bin	6e-05	0
bin	7e-05	0
bin	8e-05	0
bin	9e-05	0
bin	0.0001	0
bin	0.00011	0
bin	0.00012	0
bin	0.00013	0
bin	0.00014	0
bin	0.00015	1
bin	0.00016	0
bin	0.00017	0
bin	0.00018	0
bin	0.00019	0
bin	0.0002	0
bin	0.00021	0
bin	0.00022	0
bin	0.00023	0
bin	0.00024	0
bin	0.00025	0
bin	0.00026	0
bin	0.00027	0
bin	0.00028	0
bin	0.00029	0
bin	0.0003	0
bin	0.00031	0
bin	0.00032	0
bin	0.00033	0
bin	0.00034	0
bin	0.00035	0
bin	0.00036	0
bin	0.00037	0
bin	0.00038	0
bin	0.00039	0
bin	0.0004	0
bin	0.00041	0
bin	0.00042	0
bin	0.00043	0
bin	0.00044	0
bin	0.00045	0
bin	0.00046	0
bin	0.00047	0
bin	0.00048	0
bin	0.00049	0
bin	0.0005	0
bin	0.00051	0
bin	0.00052	0
bin	0.00053	0
bin	0.00054	0
bin	0.00055	0
bin	0.00056	0
bin	0.00057	1
bin	0.00058	0
bin	0.00059	0
bin	0.0006	0
bin	0.00061	0
bin	0.00062	0
bin	0.00063	0
bin	0.00064	0
bin	0.00065	0
bin	0.00066	0
bin	0.00067	0
bin	0.00068	0
scalar Ethernet.s2.srv packetSent:count 7
attr interpolationmode none
attr recordingmode count
attr source packetSent
attr title "packets sent, count"
scalar Ethernet.s2.srv packetSent:sum(packetBytes) 9678
attr interpolationmode none
attr recordingmode sum(packetBytes)
attr source packetSent
attr title "packets sent, sum(packetBytes)"
par Ethernet.s2.dp typename "\"inet.common.MessageDispatcher\""
par Ethernet.s2.dp displayStringTextFormat "\"processed %p pk (%l)\""
par Ethernet.s2.dp forwardServiceRegistration true
par Ethernet.s2.dp forwardProtocolRegistration true
par Ethernet.s2.llc typename "\"inet.linklayer.ieee8022.Ieee8022Llc\""
par Ethernet.s2.llc registerProtocol true
par Ethernet.s2.encap typename "\"inet.linklayer.ethernet.basic.EthernetEncapsulation\""
par Ethernet.s2.encap registerProtocol true
par Ethernet.s2.encap interfaceTableModule "\"Ethernet.s2.interfaceTable\""
par Ethernet.s2.encap fcsMode "\"declared\""
attr enum declared,computed
par Ethernet.s2.encap stopOperationExtraTime -1s
attr unit s
par Ethernet.s2.encap stopOperationTimeout 2s
attr unit s
scalar Ethernet.s2.encap pauseSent:count 0
attr recordingmode count
attr title "pause sent, count"
scalar Ethernet.s2.encap pauseSent:sum 0
attr recordingmode sum
attr title "pause sent, sum"
scalar Ethernet.s2.encap decapPk:count 42
attr interpolationmode none
attr recordingmode count
attr source decapPk
attr title "packets decapsulated, count"
scalar Ethernet.s2.encap decapPk:sum(packetBytes) 53239
attr interpolationmode none
attr recordingmode sum(packetBytes)
attr source decapPk
attr title "packets decapsulated, sum(packetBytes)"
scalar Ethernet.s2.encap encapPk:count 17
attr interpolationmode none
attr recordingmode count
attr source encapPk
attr title "packets encapsulated, count"
scalar Ethernet.s2.encap encapPk:sum(packetBytes) 16527
attr interpolationmode none
attr recordingmode sum(packetBytes)
attr source encapPk
attr title "packets encapsulated, sum(packetBytes)"
par Ethernet.s2.li typename "\"inet.common.MessageDispatcher\""
par Ethernet.s2.li displayStringTextFormat "\"processed %p pk (%l)\""
par Ethernet.s2.li forwardServiceRegistration true
par Ethernet.s2.li forwardProtocolRegistration true
par Ethernet.s2.eth.mac.phys$o.channel typename "\"ned.IdealChannel\""
par Ethernet.s2.eth.phys$i.channel typename "\"ned.IdealChannel\""
par Ethernet.s2.eth.upperLayerIn.channel typename "\"ned.IdealChannel\""
par Ethernet.s2.eth.mac.upperLayerOut.channel typename "\"ned.IdealChannel\""
par Ethernet.s2.eth.queue typename "\"inet.linklayer.ethernet.common.EthernetQueue\""
par Ethernet.s2.eth.queue displayStringTextFormat "\"contains %p pk (%l) pushed %u\\npulled %o removed %r dropped %d\""
par Ethernet.s2.eth.queue packetCapacity 1000
par Ethernet.s2.eth.queue dataCapacity -1b
attr unit b
par Ethernet.s2.eth.queue dropperClass "\"inet::queueing::PacketAtCollectionEndDropper\""
par Ethernet.s2.eth.queue comparatorClass "\"inet::EthernetFrameTypeComparator\""
par Ethernet.s2.eth.queue bufferModule "\"\""
scalar Ethernet.s2.eth.queue queueLength:last 0
attr autoWarmupFilter false
attr interpolationmode sample-hold
attr recordingmode last
attr source "warmup(atomic(constant0(packetPushEnded) + count(packetPushStarted) - count(packetPulled) - count(packetRemoved) - count(packetDropped)))"
attr title "queue length, last"
attr unit pk
scalar Ethernet.s2.eth.queue queueLength:max 3
attr autoWarmupFilter false
attr interpolationmode sample-hold
attr recordingmode max
attr source "warmup(atomic(constant0(packetPushEnded) + count(packetPushStarted) - count(packetPulled) - count(packetRemoved) - count(packetDropped)))"
attr title "queue length, max"
attr unit pk
scalar Ethernet.s2.eth.queue queueLength:timeavg 0.0012664126613808
attr autoWarmupFilter false
attr interpolationmode sample-hold
attr recordingmode timeavg
attr source "warmup(atomic(constant0(packetPushEnded) + count(packetPushStarted) - count(packetPulled) - count(packetRemoved) - count(packetDropped)))"
attr title "queue length, timeavg"
attr unit pk
scalar Ethernet.s2.eth.queue queueBitLength:last 0
attr autoWarmupFilter false
attr interpolationmode sample-hold
attr recordingmode last
attr source "warmup(atomic(constant0(packetPushEnded) + sum(packetLength(packetPushStarted)) - sum(packetLength(packetPulled)) - sum(packetLength(packetRemoved)) - sum(packetLength(packetDropped))))"
attr title "queue bit length, last"
attr unit b
scalar Ethernet.s2.eth.queue queueBitLength:max 30544
attr autoWarmupFilter false
attr interpolationmode sample-hold
attr recordingmode max
attr source "warmup(atomic(constant0(packetPushEnded) + sum(packetLength(packetPushStarted)) - sum(packetLength(packetPulled)) - sum(packetLength(packetRemoved)) - sum(packetLength(packetDropped))))"
attr title "queue bit length, max"
attr unit b
scalar Ethernet.s2.eth.queue queueBitLength:timeavg 12.747428424424
attr autoWarmupFilter false
attr interpolationmode sample-hold
attr recordingmode timeavg
attr source "warmup(atomic(constant0(packetPushEnded) + sum(packetLength(packetPushStarted)) - sum(packetLength(packetPulled)) - sum(packetLength(packetRemoved)) - sum(packetLength(packetDropped))))"
attr title "queue bit length, timeavg"
attr unit b
statistic Ethernet.s2.eth.queue queueingTime:histogram
field count 17
field mean 0.00065138823529412
field stddev 0.0011605652253764
field min 0
field max 0.0036912
field sum 0.0110736
field sqrsum 2.876379904e-05
attr interpolationmode none
attr recordingmode histogram
attr source queueingTime(packetPulled)
attr title "queueing times"
attr unit s
bin	-inf	0
bin	0	12
bin	0.0001	0
bin	0.0002	0
bin	0.0003	0
bin	0.0004	0
bin	0.0005	0
bin	0.0006	0
bin	0.0007	0
bin	0.0008	0
bin	0.0009	0
bin	0.001	0
bin	0.0011	0
bin	0.0012	2
bin	0.0013	0
bin	0.0014	0
bin	0.0015	0
bin	0.0016	0
bin	0.0017	0
bin	0.0018	0
bin	0.0019	0
bin	0.002	0
bin	0.0021	0
bin	0.0022	0
bin	0.0023	0
bin	0.0024	2
bin	0.0025	0
bin	0.0026	0
bin	0.0027	0
bin	0.0028	0
bin	0.0029	0
bin	0.003	0
bin	0.0031	0
bin	0.0032	0
bin	0.0033	0
bin	0.0034	0
bin	0.0035	0
bin	0.0036	1
bin	0.0037	0
bin	0.0038	0
bin	0.0039	0
bin	0.004	0
bin	0.0041	0
bin	0.0042	0
bin	0.0043	0
bin	0.0044	0
bin	0.0045	0
bin	0.0046	0
bin	0.0047	0
scalar Ethernet.s2.eth.queue outgoingPackets:count 17
attr recordingmode count
attr source packetPulled
attr title "outgoing packets, count"
attr unit pk
scalar Ethernet.s2.eth.queue outgoingPacketLengths:sum 134664
attr interpolationmode none
attr recordingmode sum
attr source packetLength(packetPulled)
attr title "outgoing packet lengths, sum"
attr unit b
statistic Ethernet.s2.eth.queue outgoingPacketLengths:histogram
field count 17
field mean 7921.4117647059
field stddev 3795.7768483346
field min 1264
field max 12144
field sum 134664
field sqrsum 1297255744
attr interpolationmode none
attr recordingmode histogram
attr source packetLength(packetPulled)
attr title "outgoing packet lengths"
attr unit b
bin	-inf	0
bin	0	0
bin	200	0
bin	400	0
bin	600	0
bin	800	0
bin	1000	0
bin	1200	2
bin	1400	0
bin	1600	0
bin	1800	0
bin	2000	0
bin	2200	0
bin	2400	0
bin	2600	0
bin	2800	0
bin	3000	0
bin	3200	0
bin	3400	1
bin	3600	0
bin	3800	0
bin	4000	1
bin	4200	0
bin	4400	0
bin	4600	0
bin	4800	0
bin	5000	0
bin	5200	0
bin	5400	0
bin	5600	0
bin	5800	0
bin	6000	0
bin	6200	1
bin	6400	0
bin	6600	1
bin	6800	0
bin	7000	1
bin	7200	0
bin	7400	1
bin	7600	1
bin	7800	1
bin	8000	0
bin	8200	0
bin	8400	0
bin	8600	0
bin	8800	0
bin	9000	1
bin	9200	0
bin	9400	0
bin	9600	0
bin	9800	0
bin	10000	0
bin	10200	0
bin	10400	0
bin	10600	0
bin	10800	0
bin	11000	0
bin	11200	0
bin	11400	0
bin	11600	1
bin	11800	0
bin	12000	5
bin	12200	0
bin	12400	0
bin	12600	0
bin	12800	0
bin	13000	0
bin	13200	0
bin	13400	0
bin	13600	0
bin	13800	0
bin	14000	0
bin	14200	0
bin	14400	0
bin	14600	0
bin	14800	0
bin	15000	0
statistic Ethernet.s2.eth.queue flowQueueingTime:histogram
field count 0
field mean nan
field stddev nan
field min nan
field max nan
field sum 0
field sqrsum 0
attr interpolationmode none
attr recordingmode histogram
attr source queueingTime(demuxFlow(packetPulled))
attr title "flow queueing times"
attr unit s
bin	-inf	0
bin	0	0
bin	1	0
scalar Ethernet.s2.eth.queue incomingPackets:count 17
attr recordingmode count
attr source packetPushStarted
attr title "incoming packets, count"
attr unit pk
scalar Ethernet.s2.eth.queue incomingPacketLengths:sum 134664
attr interpolationmode none
attr recordingmode sum
attr source packetLength(packetPushStarted)
attr title "incoming packet lengths, sum"
attr unit b
statistic Ethernet.s2.eth.queue incomingPacketLengths:histogram
field count 17
field mean 7921.4117647059
field stddev 3795.7768483346
field min 1264
field max 12144
field sum 134664
field sqrsum 1297255744
attr interpolationmode none
attr recordingmode histogram
attr source packetLength(packetPushStarted)
attr title "incoming packet lengths"
attr unit b
bin	-inf	0
bin	0	0
bin	200	0
bin	400	0
bin	600	0
bin	800	0
bin	1000	0
bin	1200	2
bin	1400	0
bin	1600	0
bin	1800	0
bin	2000	0
bin	2200	0
bin	2400	0
bin	2600	0
bin	2800	0
bin	3000	0
bin	3200	0
bin	3400	1
bin	3600	0
bin	3800	0
bin	4000	1
bin	4200	0
bin	4400	0
bin	4600	0
bin	4800	0
bin	5000	0
bin	5200	0
bin	5400	0
bin	5600	0
bin	5800	0
bin	6000	0
bin	6200	1
bin	6400	0
bin	6600	1
bin	6800	0
bin	7000	1
bin	7200	0
bin	7400	1
bin	7600	1
bin	7800	1
bin	8000	0
bin	8200	0
bin	8400	0
bin	8600	0
bin	8800	0
bin	9000	1
bin	9200	0
bin	9400	0
bin	9600	0
bin	9800	0
bin	10000	0
bin	10200	0
bin	10400	0
bin	10600	0
bin	10800	0
bin	11000	0
bin	11200	0
bin	11400	0
bin	11600	1
bin	11800	0
bin	12000	5
bin	12200	0
bin	12400	0
bin	12600	0
bin	12800	0
bin	13000	0
bin	13200	0
bin	13400	0
bin	13600	0
bin	13800	0
bin	14000	0
bin	14200	0
bin	14400	0
bin	14600	0
bin	14800	0
bin	15000	0
scalar Ethernet.s2.eth.queue droppedPacketsQueueOverflow:count 0
attr interpolationmode none
attr recordingmode count
attr source packetDropReasonIsQueueOverflow(packetDropped)
attr title "dropped packets: queue overflow, count"
attr unit pk
scalar Ethernet.s2.eth.queue droppedPacketLengthsQueueOverflow:sum 0
attr interpolationmode none
attr recordingmode sum
attr source packetLength(packetDropReasonIsQueueOverflow(packetDropped))
attr title "dropped packet lengths: queue overflow, sum"
attr unit b
par Ethernet.s2.eth.mac typename "\"inet.linklayer.ethernet.basic.EthernetCsmaMac\""
par Ethernet.s2.eth.mac interfaceTableModule "\"Ethernet.s2.interfaceTable\""
par Ethernet.s2.eth.mac displayStringTextFormat "\"rate: %b\\nsent: %s, rcvd: %r\\nqueue: %q, drop: %d\""
par Ethernet.s2.eth.mac sendRawBytes false
par Ethernet.s2.eth.mac promiscuous false
par Ethernet.s2.eth.mac duplexMode true
par Ethernet.s2.eth.mac frameBursting true
par Ethernet.s2.eth.mac mtu 1500B
attr unit B
par Ethernet.s2.eth.mac fcsMode "\"declared\""
attr enum declared,computed
par Ethernet.s2.eth.mac stopOperationExtraTime -1s
attr unit s
par Ethernet.s2.eth.mac stopOperationTimeout 2s
attr unit s
scalar Ethernet.s2.eth.mac "simulated time" 10
scalar Ethernet.s2.eth.mac full-duplex 1
scalar Ethernet.s2.eth.mac "frames/sec sent" 1.7
scalar Ethernet.s2.eth.mac "frames/sec rcvd" 4.2
scalar Ethernet.s2.eth.mac "bits/sec sent" 13466.4
scalar Ethernet.s2.eth.mac "bits/sec rcvd" 43196
scalar Ethernet.s2.eth.mac "rx channel idle (%)" 98.32809874227
scalar Ethernet.s2.eth.mac "rx channel utilization (%)" 1.654512
scalar Ethernet.s2.eth.mac "rx channel collision (%)" 0.01738925773
scalar Ethernet.s2.eth.mac collisions 1
scalar Ethernet.s2.eth.mac backoffs 0
scalar Ethernet.s2.eth.mac backoffSlotsGenerated:count 0
attr interpolationmode none
attr recordingmode count
attr title "backoff, count"
scalar Ethernet.s2.eth.mac collision:count 1
attr interpolationmode none
attr recordingmode count
attr title "collision, count"
scalar Ethernet.s2.eth.mac rxPausePkUnits:count 0
attr interpolationmode none
attr recordingmode count
attr title "pause units received, count"
scalar Ethernet.s2.eth.mac rxPausePkUnits:sum 0
attr interpolationmode none
attr recordingmode sum
attr title "pause units received, sum"
scalar Ethernet.s2.eth.mac txPausePkUnits:count 0
attr interpolationmode none
attr recordingmode count
attr title "pause units sent, count"
scalar Ethernet.s2.eth.mac txPausePkUnits:sum 0
attr interpolationmode none
attr recordingmode sum
attr title "pause units sent, sum"
scalar Ethernet.s2.eth.mac rxPkOk:count 42
attr interpolationmode none
attr recordingmode count
attr source rxPkOk
attr title "packets received OK, count"
scalar Ethernet.s2.eth.mac rxPkOk:sum(packetBytes) 53995
attr interpolationmode none
attr recordingmode sum(packetBytes)
attr source rxPkOk
attr title "packets received OK, sum(packetBytes)"
scalar Ethernet.s2.eth.mac txPk:count 17
attr interpolationmode none
attr recordingmode count
attr source packetSentToLower
attr title "packets transmitted, count"
scalar Ethernet.s2.eth.mac txPk:sum(packetBytes) 16833
attr interpolationmode none
attr recordingmode sum(packetBytes)
attr source packetSentToLower
attr title "packets transmitted, sum(packetBytes)"
scalar Ethernet.s2.eth.mac packetReceivedFromUpper:count 17
attr interpolationmode none
attr recordingmode count
attr source packetReceivedFromUpper
attr title "packet bytes from higher layer, count"
scalar Ethernet.s2.eth.mac packetReceivedFromUpper:sum(packetBytes) 16833
attr interpolationmode none
attr recordingmode sum(packetBytes)
attr source packetReceivedFromUpper
attr title "packet bytes from higher layer, sum(packetBytes)"
scalar Ethernet.s2.eth.mac passedUpPk:count 42
attr interpolationmode none
attr recordingmode count
attr source packetSentToUpper
attr title "packets passed to higher layer, count"
scalar Ethernet.s2.eth.mac passedUpPk:sum(packetBytes) 53995
attr interpolationmode none
attr recordingmode sum(packetBytes)
attr source packetSentToUpper
attr title "packets passed to higher layer, sum(packetBytes)"
scalar Ethernet.s2.eth.mac packetDropIncorrectlyReceived:count 0
attr interpolationmode none
attr recordingmode count
attr source packetDropReasonIsIncorrectlyReceived(packetDropped)
attr title "packet drop: incorrectly received, count"
scalar Ethernet.s2.eth.mac packetDropIncorrectlyReceived:sum(packetBytes) 0
attr interpolationmode none
attr recordingmode sum(packetBytes)
attr source packetDropReasonIsIncorrectlyReceived(packetDropped)
attr title "packet drop: incorrectly received, sum(packetBytes)"
scalar Ethernet.s2.eth.mac packetDropInterfaceDown:count 0
attr interpolationmode none
attr recordingmode count
attr source packetDropReasonIsInterfaceDown(packetDropped)
attr title "packet drop: interface down, count"
scalar Ethernet.s2.eth.mac packetDropInterfaceDown:sum(packetBytes) 0
attr interpolationmode none
attr recordingmode sum(packetBytes)
attr source packetDropReasonIsInterfaceDown(packetDropped)
attr title "packet drop: interface down, sum(packetBytes)"
scalar Ethernet.s2.eth.mac packetDropNotAddressedToUs:count 134
attr interpolationmode none
attr recordingmode count
attr source packetDropReasonIsNotAddressedToUs(packetDropped)
attr title "packet drop: not addressed to us, count"
scalar Ethernet.s2.eth.mac packetDropNotAddressedToUs:sum(packetBytes) 151411
attr interpolationmode none
attr recordingmode sum(packetBytes)
attr source packetDropReasonIsNotAddressedToUs(packetDropped)
attr title "packet drop: not addressed to us, sum(packetBytes)"
par Ethernet.s2.eth typename "\"inet.linklayer.ethernet.EthernetInterface\""
par Ethernet.s2.eth displayStringTextFormat "\"%a (%i)\\n%m\""
par Ethernet.s2.eth recordPcap false
par Ethernet.s2.eth numPcapRecorders 0
par Ethernet.s2.eth interfaceTableModule "\"Ethernet.s2.interfaceTable\""
par Ethernet.s2.eth protocol "\"ethernetmac\""
par Ethernet.s2.eth address "\"0A-AA-00-00-00-03\""
attr mutable ""
par Ethernet.s2.eth duplexMode true
par Ethernet.s2.eth csmacdSupport true
par Ethernet.s2.eth bitrate 0bps
attr unit bps
par Ethernet.s2.eth fcsMode "\"declared\""
attr enum declared,computed
scalar Ethernet.s2.eth packetDropInterfaceDown:count 0
attr interpolationmode none
attr recordingmode count
attr source packetDropReasonIsInterfaceDown(packetDropped)
attr title "packet drops: interface down, count"
scalar Ethernet.s2.eth packetDropInterfaceDown:sum(packetBytes) 0
attr interpolationmode none
attr recordingmode sum(packetBytes)
attr source packetDropReasonIsInterfaceDown(packetDropped)
attr title "packet drops: interface down, sum(packetBytes)"
scalar Ethernet.s2.eth packetDropNoCarrier:count 0
attr interpolationmode none
attr recordingmode count
attr source packetDropReasonIsNoCarrier(packetDropped)
attr title "packet drops: no carrier, count"
scalar Ethernet.s2.eth packetDropNoCarrier:sum(packetBytes) 0
attr interpolationmode none
attr recordingmode sum(packetBytes)
attr source packetDropReasonIsNoCarrier(packetDropped)
attr title "packet drops: no carrier, sum(packetBytes)"
par Ethernet.s2 typename "\"inet.node.ethernet.EthernetHost\""
par Ethernet.s2 hasStatus false
par Ethernet.s2 csmacdSupport true
par Ethernet.s2 fcsMode "\"declared\""
attr enum declared,computed
par Ethernet.s3.eth.phys$o.channel typename "\"ned.IdealChannel\""
par Ethernet.s3.ethg$i.channel typename "\"ned.IdealChannel\""
par Ethernet.s3.interfaceTable typename "\"inet.networklayer.common.InterfaceTable\""
par Ethernet.s3.interfaceTable displayAddresses false
par Ethernet.s3.cli typename "\"inet.applications.ethernet.EtherAppClient\""
par Ethernet.s3.cli interfaceTableModule "\"Ethernet.s3.interfaceTable\""
par Ethernet.s3.cli destAddress "\"s2\""
par Ethernet.s3.cli interface "\"eth\""
par Ethernet.s3.cli startTime 1.8596s
attr unit s
par Ethernet.s3.cli stopTime -1s
attr unit s
par Ethernet.s3.cli localSAP 240
par Ethernet.s3.cli remoteSAP 241
par Ethernet.s3.cli sendInterval exponential(1s)
attr unit s
par Ethernet.s3.cli reqLength "intuniform(50, 1400)*1B"
attr unit B
par Ethernet.s3.cli respLength "intWithUnit(truncnormal(3000B, 3000B))"
attr unit B
par Ethernet.s3.cli stopOperationExtraTime -1s
attr unit s
par Ethernet.s3.cli stopOperationTimeout 2s
attr unit s
scalar Ethernet.s3.cli packetReceived:count 7
attr interpolationmode none
attr recordingmode count
attr source packetReceived
attr title "packets received, count"
scalar Ethernet.s3.cli packetReceived:sum(packetBytes) 9678
attr interpolationmode none
attr recordingmode sum(packetBytes)
attr source packetReceived
attr title "packets received, sum(packetBytes)"
statistic Ethernet.s3.cli endToEndDelay:histogram
field count 7
field mean 0.0027113
field stddev 0.0012221199504686
field min 0.0012209
field max 0.0043233
field sum 0.0189791
field sqrsum 6.041949687e-05
attr interpolationmode none
attr recordingmode histogram
attr source dataAge(packetReceived)
attr title "end-to-end delay"
attr unit s
bin	-inf	0
bin	0.0004	0
bin	0.0005	0
bin	0.0006	0
bin	0.0007	0
bin	0.0008	0
bin	0.0009	0
bin	0.001	0
bin	0.0011	0
bin	0.0012	2
bin	0.0013	0
bin	0.0014	0
bin	0.0015	0
bin	0.0016	0
bin	0.0017	0
bin	0.0018	0
bin	0.0019	0
bin	0.002	0
bin	0.0021	0
bin	0.0022	0
bin	0.0023	0
bin	0.0024	2
bin	0.0025	0
bin	0.0026	0
bin	0.0027	0
bin	0.0028	0
bin	0.0029	0
bin	0.003	0
bin	0.0031	0
bin	0.0032	0
bin	0.0033	0
bin	0.0034	0
bin	0.0035	0
bin	0.0036	2
bin	0.0037	0
bin	0.0038	0
bin	0.0039	0
bin	0.004	0
bin	0.0041	0
bin	0.0042	0
bin	0.0043	1
bin	0.0044	0
bin	0.0045	0
bin	0.0046	0
bin	0.0047	0
bin	0.0048	0
bin	0.0049	0
bin	0.005	0
bin	0.0051	0
scalar Ethernet.s3.cli packetSent:count 2
attr interpolationmode none
attr recordingmode count
attr source packetSent
attr title "packets sent, count"
scalar Ethernet.s3.cli packetSent:sum(packetBytes) 854
attr interpolationmode none
attr recordingmode sum(packetBytes)
attr source packetSent
attr title "packets sent, sum(packetBytes)"
par Ethernet.s3.srv typename "\"inet.applications.ethernet.EtherAppServer\""
par Ethernet.s3.srv localSAP 241
par Ethernet.s3.srv stopOperationExtraTime -1s
attr unit s
par Ethernet.s3.srv stopOperationTimeout 2s
attr unit s
scalar Ethernet.s3.srv packetReceived:count 10
attr interpolationmode none
attr recordingmode count
attr source packetReceived
attr title "packets received, count"
scalar Ethernet.s3.srv packetReceived:sum(packetBytes) 6798
attr interpolationmode none
attr recordingmode sum(packetBytes)
attr source packetReceived
attr title "packets received, sum(packetBytes)"
statistic Ethernet.s3.srv endToEndDelay:histogram
field count 10
field mean 0.00056714
field stddev 0.00028146431074334
field min 0.0001329
field max 0.0009113
field sum 0.0056714
field sqrsum 3.92947722e-06
attr interpolationmode none
attr recordingmode histogram
attr source dataAge(packetReceived)
attr title "end-to-end delay"
attr unit s
bin	-inf	0
bin	0	0
bin	2e-05	0
bin	4e-05	0
bin	6e-05	0
bin	8e-05	0
bin	0.0001	0
bin	0.00012	1
bin	0.00014	1
bin	0.00016	0
bin	0.00018	0
bin	0.0002	0
bin	0.00022	0
bin	0.00024	0
bin	0.00026	0
bin	0.00028	0
bin	0.0003	0
bin	0.00032	0
bin	0.00034	1
bin	0.00036	0
bin	0.00038	0
bin	0.0004	0
bin	0.00042	1
bin	0.00044	0
bin	0.00046	0
bin	0.00048	0
bin	0.0005	0
bin	0.00052	0
bin	0.00054	0
bin	0.00056	0
bin	0.00058	0
bin	0.0006	0
bin	0.00062	0
bin	0.00064	0
bin	0.00066	1
bin	0.00068	0
bin	0.0007	1
bin	0.00072	0
bin	0.00074	0
bin	0.00076	2
bin	0.00078	1
bin	0.0008	0
bin	0.00082	0
bin	0.00084	0
bin	0.00086	0
bin	0.00088	0
bin	0.0009	1
bin	0.00092	0
bin	0.00094	0
bin	0.00096	0
bin	0.00098	0
bin	0.001	0
bin	0.00102	0
bin	0.00104	0
bin	0.00106	0
bin	0.00108	0
bin	0.0011	0
bin	0.00112	0
scalar Ethernet.s3.srv packetSent:count 41
attr interpolationmode none
attr recordingmode count
attr source packetSent
attr title "packets sent, count"
scalar Ethernet.s3.srv packetSent:sum(packetBytes) 53730
attr interpolationmode none
attr recordingmode sum(packetBytes)
attr source packetSent
attr title "packets sent, sum(packetBytes)"
par Ethernet.s3.dp typename "\"inet.common.MessageDispatcher\""
par Ethernet.s3.dp displayStringTextFormat "\"processed %p pk (%l)\""
par Ethernet.s3.dp forwardServiceRegistration true
par Ethernet.s3.dp forwardProtocolRegistration true
par Ethernet.s3.llc typename "\"inet.linklayer.ieee8022.Ieee8022Llc\""
par Ethernet.s3.llc registerProtocol true
par Ethernet.s3.encap typename "\"inet.linklayer.ethernet.basic.EthernetEncapsulation\""
par Ethernet.s3.encap registerProtocol true
par Ethernet.s3.encap interfaceTableModule "\"Ethernet.s3.interfaceTable\""
par Ethernet.s3.encap fcsMode "\"declared\""
attr enum declared,computed
par Ethernet.s3.encap stopOperationExtraTime -1s
attr unit s
par Ethernet.s3.encap stopOperationTimeout 2s
attr unit s
scalar Ethernet.s3.encap pauseSent:count 0
attr recordingmode count
attr title "pause sent, count"
scalar Ethernet.s3.encap pauseSent:sum 0
attr recordingmode sum
attr title "pause sent, sum"
scalar Ethernet.s3.encap decapPk:count 17
attr interpolationmode none
attr recordingmode count
attr source decapPk
attr title "packets decapsulated, count"
scalar Ethernet.s3.encap decapPk:sum(packetBytes) 16527
attr interpolationmode none
attr recordingmode sum(packetBytes)
attr source decapPk
attr title "packets decapsulated, sum(packetBytes)"
scalar Ethernet.s3.encap encapPk:count 43
attr interpolationmode none
attr recordingmode count
attr source encapPk
attr title "packets encapsulated, count"
scalar Ethernet.s3.encap encapPk:sum(packetBytes) 54713
attr interpolationmode none
attr recordingmode sum(packetBytes)
attr source encapPk
attr title "packets encapsulated, sum(packetBytes)"
par Ethernet.s3.li typename "\"inet.common.MessageDispatcher\""
par Ethernet.s3.li displayStringTextFormat "\"processed %p pk (%l)\""
par Ethernet.s3.li forwardServiceRegistration true
par Ethernet.s3.li forwardProtocolRegistration true
par Ethernet.s3.eth.mac.phys$o.channel typename "\"ned.IdealChannel\""
par Ethernet.s3.eth.phys$i.channel typename "\"ned.IdealChannel\""
par Ethernet.s3.eth.upperLayerIn.channel typename "\"ned.IdealChannel\""
par Ethernet.s3.eth.mac.upperLayerOut.channel typename "\"ned.IdealChannel\""
par Ethernet.s3.eth.queue typename "\"inet.linklayer.ethernet.common.EthernetQueue\""
par Ethernet.s3.eth.queue displayStringTextFormat "\"contains %p pk (%l) pushed %u\\npulled %o removed %r dropped %d\""
par Ethernet.s3.eth.queue packetCapacity 1000
par Ethernet.s3.eth.queue dataCapacity -1b
attr unit b
par Ethernet.s3.eth.queue dropperClass "\"inet::queueing::PacketAtCollectionEndDropper\""
par Ethernet.s3.eth.queue comparatorClass "\"inet::EthernetFrameTypeComparator\""
par Ethernet.s3.eth.queue bufferModule "\"\""
scalar Ethernet.s3.eth.queue queueLength:last 0
attr autoWarmupFilter false
attr interpolationmode sample-hold
attr recordingmode last
[...]
bin	0.003	0
bin	0.0031	0
bin	0.0032	0
bin	0.0033	0
bin	0.0034	0
bin	0.0035	0
bin	0.0036	4
bin	0.0037	0
bin	0.0038	1
bin	0.0039	0
bin	0.004	0
bin	0.0041	1
bin	0.0042	0
bin	0.0043	0
bin	0.0044	0
bin	0.0045	1
bin	0.0046	0
bin	0.0047	0
bin	0.0048	1
bin	0.0049	0
bin	0.005	0
bin	0.0051	0
bin	0.0052	0
bin	0.0053	0
bin	0.0054	0
bin	0.0055	0
bin	0.0056	0
bin	0.0057	0
bin	0.0058	0
bin	0.0059	0
scalar Ethernet.s5.cli packetSent:count 9
attr interpolationmode none
attr recordingmode count
attr source packetSent
attr title "packets sent, count"
scalar Ethernet.s5.cli packetSent:sum(packetBytes) 5852
attr interpolationmode none
attr recordingmode sum(packetBytes)
attr source packetSent
attr title "packets sent, sum(packetBytes)"
par Ethernet.s5.srv typename "\"inet.applications.ethernet.EtherAppServer\""
par Ethernet.s5.srv localSAP 241
par Ethernet.s5.srv stopOperationExtraTime -1s
attr unit s
par Ethernet.s5.srv stopOperationTimeout 2s
attr unit s
scalar Ethernet.s5.srv packetReceived:count 10
attr interpolationmode none
attr recordingmode count
attr source packetReceived
attr title "packets received, count"
scalar Ethernet.s5.srv packetReceived:sum(packetBytes) 5166
attr interpolationmode none
attr recordingmode sum(packetBytes)
attr source packetReceived
attr title "packets received, sum(packetBytes)"
statistic Ethernet.s5.srv endToEndDelay:histogram
field count 10
field mean 0.00043658
field stddev 0.00025739459029108
field min 0.0001089
field max 0.0008665
field sum 0.0043658
field sqrsum 2.50228874e-06
attr interpolationmode none
attr recordingmode histogram
attr source dataAge(packetReceived)
attr title "end-to-end delay"
attr unit s
bin	-inf	0
bin	0	0
bin	2e-05	0
bin	4e-05	0
bin	6e-05	0
bin	8e-05	0
bin	0.0001	1
bin	0.00012	0
bin	0.00014	0
bin	0.00016	0
bin	0.00018	1
bin	0.0002	0
bin	0.00022	0
bin	0.00024	0
bin	0.00026	1
bin	0.00028	1
bin	0.0003	1
bin	0.00032	0
bin	0.00034	0
bin	0.00036	1
bin	0.00038	0
bin	0.0004	0
bin	0.00042	0
bin	0.00044	0
bin	0.00046	0
bin	0.00048	0
bin	0.0005	1
bin	0.00052	0
bin	0.00054	0
bin	0.00056	0
bin	0.00058	0
bin	0.0006	0
bin	0.00062	0
bin	0.00064	0
bin	0.00066	0
bin	0.00068	1
bin	0.0007	0
bin	0.00072	0
bin	0.00074	1
bin	0.00076	0
bin	0.00078	0
bin	0.0008	0
bin	0.00082	0
bin	0.00084	0
bin	0.00086	1
bin	0.00088	0
bin	0.0009	0
bin	0.00092	0
bin	0.00094	0
bin	0.00096	0
bin	0.00098	0
bin	0.001	0
bin	0.00102	0
bin	0.00104	0
bin	0.00106	0
scalar Ethernet.s5.srv packetSent:count 34
attr interpolationmode none
attr recordingmode count
attr source packetSent
attr title "packets sent, count"
scalar Ethernet.s5.srv packetSent:sum(packetBytes) 43257
attr interpolationmode none
attr recordingmode sum(packetBytes)
attr source packetSent
attr title "packets sent, sum(packetBytes)"
par Ethernet.s5.dp typename "\"inet.common.MessageDispatcher\""
par Ethernet.s5.dp displayStringTextFormat "\"processed %p pk (%l)\""
par Ethernet.s5.dp forwardServiceRegistration true
par Ethernet.s5.dp forwardProtocolRegistration true
par Ethernet.s5.llc typename "\"inet.linklayer.ieee8022.Ieee8022Llc\""
par Ethernet.s5.llc registerProtocol true
par Ethernet.s5.encap typename "\"inet.linklayer.ethernet.basic.EthernetEncapsulation\""
par Ethernet.s5.encap registerProtocol true
par Ethernet.s5.encap interfaceTableModule "\"Ethernet.s5.interfaceTable\""
par Ethernet.s5.encap fcsMode "\"declared\""
attr enum declared,computed
par Ethernet.s5.encap stopOperationExtraTime -1s
attr unit s
par Ethernet.s5.encap stopOperationTimeout 2s
attr unit s
scalar Ethernet.s5.encap pauseSent:count 0
attr recordingmode count
attr title "pause sent, count"
scalar Ethernet.s5.encap pauseSent:sum 0
attr recordingmode sum
attr title "pause sent, sum"
scalar Ethernet.s5.encap decapPk:count 35
attr interpolationmode none
attr recordingmode count
attr source decapPk
attr title "packets decapsulated, count"
scalar Ethernet.s5.encap decapPk:sum(packetBytes) 36568
attr interpolationmode none
attr recordingmode sum(packetBytes)
attr source decapPk
attr title "packets decapsulated, sum(packetBytes)"
scalar Ethernet.s5.encap encapPk:count 43
attr interpolationmode none
attr recordingmode count
attr source encapPk
attr title "packets encapsulated, count"
scalar Ethernet.s5.encap encapPk:sum(packetBytes) 49238
attr interpolationmode none
attr recordingmode sum(packetBytes)
attr source encapPk
attr title "packets encapsulated, sum(packetBytes)"
par Ethernet.s5.li typename "\"inet.common.MessageDispatcher\""
par Ethernet.s5.li displayStringTextFormat "\"processed %p pk (%l)\""
par Ethernet.s5.li forwardServiceRegistration true
par Ethernet.s5.li forwardProtocolRegistration true
par Ethernet.s5.eth.mac.phys$o.channel typename "\"ned.IdealChannel\""
par Ethernet.s5.eth.phys$i.channel typename "\"ned.IdealChannel\""
par Ethernet.s5.eth.upperLayerIn.channel typename "\"ned.IdealChannel\""
par Ethernet.s5.eth.mac.upperLayerOut.channel typename "\"ned.IdealChannel\""
par Ethernet.s5.eth.queue typename "\"inet.linklayer.ethernet.common.EthernetQueue\""
par Ethernet.s5.eth.queue displayStringTextFormat "\"contains %p pk (%l) pushed %u\\npulled %o removed %r dropped %d\""
par Ethernet.s5.eth.queue packetCapacity 1000
par Ethernet.s5.eth.queue dataCapacity -1b
attr unit b
par Ethernet.s5.eth.queue dropperClass "\"inet::queueing::PacketAtCollectionEndDropper\""
par Ethernet.s5.eth.queue comparatorClass "\"inet::EthernetFrameTypeComparator\""
par Ethernet.s5.eth.queue bufferModule "\"\""
scalar Ethernet.s5.eth.queue queueLength:last 0
attr autoWarmupFilter false
attr interpolationmode sample-hold
attr recordingmode last
attr source "warmup(atomic(constant0(packetPushEnded) + count(packetPushStarted) - count(packetPulled) - count(packetRemoved) - count(packetDropped)))"
attr title "queue length, last"
attr unit pk
scalar Ethernet.s5.eth.queue queueLength:max 7
attr autoWarmupFilter false
attr interpolationmode sample-hold
attr recordingmode max
attr source "warmup(atomic(constant0(packetPushEnded) + count(packetPushStarted) - count(packetPulled) - count(packetRemoved) - count(packetDropped)))"
attr title "queue length, max"
attr unit pk
scalar Ethernet.s5.eth.queue queueLength:timeavg 0.0078624465240377
attr autoWarmupFilter false
attr interpolationmode sample-hold
attr recordingmode timeavg
attr source "warmup(atomic(constant0(packetPushEnded) + count(packetPushStarted) - count(packetPulled) - count(packetRemoved) - count(packetDropped)))"
attr title "queue length, timeavg"
attr unit pk
scalar Ethernet.s5.eth.queue queueBitLength:last 0
attr autoWarmupFilter false
attr interpolationmode sample-hold
attr recordingmode last
attr source "warmup(atomic(constant0(packetPushEnded) + sum(packetLength(packetPushStarted)) - sum(packetLength(packetPulled)) - sum(packetLength(packetRemoved)) - sum(packetLength(packetDropped))))"
attr title "queue bit length, last"
attr unit b
scalar Ethernet.s5.eth.queue queueBitLength:max 75032
attr autoWarmupFilter false
attr interpolationmode sample-hold
attr recordingmode max
attr source "warmup(atomic(constant0(packetPushEnded) + sum(packetLength(packetPushStarted)) - sum(packetLength(packetPulled)) - sum(packetLength(packetRemoved)) - sum(packetLength(packetDropped))))"
attr title "queue bit length, max"
attr unit b
scalar Ethernet.s5.eth.queue queueBitLength:timeavg 72.503686180837
attr autoWarmupFilter false
attr interpolationmode sample-hold
attr recordingmode timeavg
attr source "warmup(atomic(constant0(packetPushEnded) + sum(packetLength(packetPushStarted)) - sum(packetLength(packetPulled)) - sum(packetLength(packetRemoved)) - sum(packetLength(packetDropped))))"
attr title "queue bit length, timeavg"
attr unit b
statistic Ethernet.s5.eth.queue queueingTime:histogram
field count 43
field mean 0.0016596093023256
field stddev 0.0021460101761413
field min 0
field max 0.0086128
field sum 0.0713632
field sqrsum 0.00031186013696
attr interpolationmode none
attr recordingmode histogram
attr source queueingTime(packetPulled)
attr title "queueing times"
attr unit s
bin	-inf	0
bin	0	19
bin	0.0002	0
bin	0.0004	0
bin	0.0006	0
bin	0.0008	0
bin	0.001	0
bin	0.0012	9
bin	0.0014	0
bin	0.0016	0
bin	0.0018	0
bin	0.002	0
bin	0.0022	0
bin	0.0024	7
bin	0.0026	0
bin	0.0028	0
bin	0.003	0
bin	0.0032	0
bin	0.0034	0
bin	0.0036	3
bin	0.0038	0
bin	0.004	0
bin	0.0042	0
bin	0.0044	0
bin	0.0046	0
bin	0.0048	2
bin	0.005	0
bin	0.0052	0
bin	0.0054	0
bin	0.0056	0
bin	0.0058	0
bin	0.006	1
bin	0.0062	0
bin	0.0064	0
bin	0.0066	0
bin	0.0068	0
bin	0.007	0
bin	0.0072	1
bin	0.0074	0
bin	0.0076	0
bin	0.0078	0
bin	0.008	0
bin	0.0082	0
bin	0.0084	0
bin	0.0086	1
bin	0.0088	0
bin	0.009	0
bin	0.0092	0
bin	0.0094	0
bin	0.0096	0
bin	0.0098	0
bin	0.01	0
bin	0.0102	0
bin	0.0104	0
bin	0.0106	0
bin	0.0108	0
scalar Ethernet.s5.eth.queue outgoingPackets:count 43
attr recordingmode count
attr source packetPulled
attr title "outgoing packets, count"
attr unit pk
scalar Ethernet.s5.eth.queue outgoingPacketLengths:sum 400096
attr interpolationmode none
attr recordingmode sum
attr source packetLength(packetPulled)
attr title "outgoing packet lengths, sum"
attr unit b
statistic Ethernet.s5.eth.queue outgoingPacketLengths:histogram
field count 43
field mean 9304.5581395349
field stddev 3755.1301372562
field min 1320
field max 12144
field sum 400096
field sqrsum 4314958592
attr interpolationmode none
attr recordingmode histogram
attr source packetLength(packetPulled)
attr title "outgoing packet lengths"
attr unit b
bin	-inf	0
bin	0	0
bin	200	0
bin	400	0
bin	600	0
bin	800	0
bin	1000	0
bin	1200	1
bin	1400	1
bin	1600	0
bin	1800	0
bin	2000	1
bin	2200	0
bin	2400	1
bin	2600	0
bin	2800	0
bin	3000	1
bin	3200	0
bin	3400	0
bin	3600	0
bin	3800	1
bin	4000	1
bin	4200	0
bin	4400	0
bin	4600	0
bin	4800	1
bin	5000	0
bin	5200	1
bin	5400	0
bin	5600	1
bin	5800	0
bin	6000	0
bin	6200	2
bin	6400	0
bin	6600	0
bin	6800	1
bin	7000	0
bin	7200	1
bin	7400	1
bin	7600	0
bin	7800	0
bin	8000	0
bin	8200	0
bin	8400	0
bin	8600	0
bin	8800	0
bin	9000	1
bin	9200	0
bin	9400	2
bin	9600	0
bin	9800	0
bin	10000	0
bin	10200	0
bin	10400	0
bin	10600	0
bin	10800	0
bin	11000	0
bin	11200	0
bin	11400	1
bin	11600	0
bin	11800	0
bin	12000	24
bin	12200	0
bin	12400	0
bin	12600	0
bin	12800	0
bin	13000	0
bin	13200	0
bin	13400	0
bin	13600	0
bin	13800	0
bin	14000	0
bin	14200	0
bin	14400	0
bin	14600	0
bin	14800	0
bin	15000	0
statistic Ethernet.s5.eth.queue flowQueueingTime:histogram
field count 0
field mean nan
field stddev nan
field min nan
field max nan
field sum 0
field sqrsum 0
attr interpolationmode none
attr recordingmode histogram
attr source queueingTime(demuxFlow(packetPulled))
attr title "flow queueing times"
attr unit s
bin	-inf	0
bin	0	0
bin	1	0
scalar Ethernet.s5.eth.queue incomingPackets:count 43
attr recordingmode count
attr source packetPushStarted
attr title "incoming packets, count"
attr unit pk
scalar Ethernet.s5.eth.queue incomingPacketLengths:sum 400096
attr interpolationmode none
attr recordingmode sum
attr source packetLength(packetPushStarted)
attr title "incoming packet lengths, sum"
attr unit b
statistic Ethernet.s5.eth.queue incomingPacketLengths:histogram
field count 43
field mean 9304.5581395349
field stddev 3755.1301372562
field min 1320
field max 12144
field sum 400096
field sqrsum 4314958592
attr interpolationmode none
attr recordingmode histogram
attr source packetLength(packetPushStarted)
attr title "incoming packet lengths"
attr unit b
bin	-inf	0
bin	0	0
bin	200	0
bin	400	0
bin	600	0
bin	800	0
bin	1000	0
bin	1200	1
bin	1400	1
bin	1600	0
bin	1800	0
bin	2000	1
bin	2200	0
bin	2400	1
bin	2600	0
bin	2800	0
bin	3000	1
bin	3200	0
bin	3400	0
bin	3600	0
bin	3800	1
bin	4000	1
bin	4200	0
bin	4400	0
bin	4600	0
bin	4800	1
bin	5000	0
bin	5200	1
bin	5400	0
bin	5600	1
bin	5800	0
bin	6000	0
bin	6200	2
bin	6400	0
bin	6600	0
bin	6800	1
bin	7000	0
bin	7200	1
bin	7400	1
bin	7600	0
bin	7800	0
bin	8000	0
bin	8200	0
bin	8400	0
bin	8600	0
bin	8800	0
bin	9000	1
bin	9200	0
bin	9400	2
bin	9600	0
bin	9800	0
bin	10000	0
bin	10200	0
bin	10400	0
bin	10600	0
bin	10800	0
bin	11000	0
bin	11200	0
bin	11400	1
bin	11600	0
bin	11800	0
bin	12000	24
bin	12200	0
bin	12400	0
bin	12600	0
bin	12800	0
bin	13000	0
bin	13200	0
bin	13400	0
bin	13600	0
bin	13800	0
bin	14000	0
bin	14200	0
bin	14400	0
bin	14600	0
bin	14800	0
bin	15000	0
scalar Ethernet.s5.eth.queue droppedPacketsQueueOverflow:count 0
attr interpolationmode none
attr recordingmode count
attr source packetDropReasonIsQueueOverflow(packetDropped)
attr title "dropped packets: queue overflow, count"
attr unit pk
scalar Ethernet.s5.eth.queue droppedPacketLengthsQueueOverflow:sum 0
attr interpolationmode none
attr recordingmode sum
attr source packetLength(packetDropReasonIsQueueOverflow(packetDropped))
attr title "dropped packet lengths: queue overflow, sum"
attr unit b
par Ethernet.s5.eth.mac typename "\"inet.linklayer.ethernet.basic.EthernetCsmaMac\""
par Ethernet.s5.eth.mac interfaceTableModule "\"Ethernet.s5.interfaceTable\""
par Ethernet.s5.eth.mac displayStringTextFormat "\"rate: %b\\nsent: %s, rcvd: %r\\nqueue: %q, drop: %d\""
par Ethernet.s5.eth.mac sendRawBytes false
par Ethernet.s5.eth.mac promiscuous false
par Ethernet.s5.eth.mac duplexMode true
par Ethernet.s5.eth.mac frameBursting true
par Ethernet.s5.eth.mac mtu 1500B
attr unit B
par Ethernet.s5.eth.mac fcsMode "\"declared\""
attr enum declared,computed
par Ethernet.s5.eth.mac stopOperationExtraTime -1s
attr unit s
par Ethernet.s5.eth.mac stopOperationTimeout 2s
attr unit s
scalar Ethernet.s5.eth.mac "simulated time" 10
scalar Ethernet.s5.eth.mac full-duplex 1
scalar Ethernet.s5.eth.mac "frames/sec sent" 4.3
scalar Ethernet.s5.eth.mac "frames/sec rcvd" 3.5
scalar Ethernet.s5.eth.mac "bits/sec sent" 40009.6
scalar Ethernet.s5.eth.mac "bits/sec rcvd" 29758.4
scalar Ethernet.s5.eth.mac "rx channel idle (%)" 98.59519474227
scalar Ethernet.s5.eth.mac "rx channel utilization (%)" 1.387416
scalar Ethernet.s5.eth.mac "rx channel collision (%)" 0.01738925773
scalar Ethernet.s5.eth.mac collisions 1
scalar Ethernet.s5.eth.mac backoffs 0
scalar Ethernet.s5.eth.mac backoffSlotsGenerated:count 0
attr interpolationmode none
attr recordingmode count
attr title "backoff, count"
scalar Ethernet.s5.eth.mac collision:count 1
attr interpolationmode none
attr recordingmode count
attr title "collision, count"
scalar Ethernet.s5.eth.mac rxPausePkUnits:count 0
attr interpolationmode none
attr recordingmode count
attr title "pause units received, count"
scalar Ethernet.s5.eth.mac rxPausePkUnits:sum 0
attr interpolationmode none
attr recordingmode sum
attr title "pause units received, sum"
scalar Ethernet.s5.eth.mac txPausePkUnits:count 0
attr interpolationmode none
attr recordingmode count
attr title "pause units sent, count"
scalar Ethernet.s5.eth.mac txPausePkUnits:sum 0
attr interpolationmode none
attr recordingmode sum
attr title "pause units sent, sum"
scalar Ethernet.s5.eth.mac rxPkOk:count 35
attr interpolationmode none
attr recordingmode count
attr source rxPkOk
attr title "packets received OK, count"
scalar Ethernet.s5.eth.mac rxPkOk:sum(packetBytes) 37198
attr interpolationmode none
attr recordingmode sum(packetBytes)
attr source rxPkOk
attr title "packets received OK, sum(packetBytes)"
scalar Ethernet.s5.eth.mac txPk:count 43
attr interpolationmode none
attr recordingmode count
attr source packetSentToLower
attr title "packets transmitted, count"
scalar Ethernet.s5.eth.mac txPk:sum(packetBytes) 50012
attr interpolationmode none
attr recordingmode sum(packetBytes)
attr source packetSentToLower
attr title "packets transmitted, sum(packetBytes)"
scalar Ethernet.s5.eth.mac packetReceivedFromUpper:count 43
attr interpolationmode none
attr recordingmode count
attr source packetReceivedFromUpper
attr title "packet bytes from higher layer, count"
scalar Ethernet.s5.eth.mac packetReceivedFromUpper:sum(packetBytes) 50012
attr interpolationmode none
attr recordingmode sum(packetBytes)
attr source packetReceivedFromUpper
attr title "packet bytes from higher layer, sum(packetBytes)"
scalar Ethernet.s5.eth.mac passedUpPk:count 35
attr interpolationmode none
attr recordingmode count
attr source packetSentToUpper
attr title "packets passed to higher layer, count"
scalar Ethernet.s5.eth.mac passedUpPk:sum(packetBytes) 37198
attr interpolationmode none
attr recordingmode sum(packetBytes)
attr source packetSentToUpper
attr title "packets passed to higher layer, sum(packetBytes)"
scalar Ethernet.s5.eth.mac packetDropIncorrectlyReceived:count 0
attr interpolationmode none
attr recordingmode count
attr source packetDropReasonIsIncorrectlyReceived(packetDropped)
attr title "packet drop: incorrectly received, count"
scalar Ethernet.s5.eth.mac packetDropIncorrectlyReceived:sum(packetBytes) 0
attr interpolationmode none
attr recordingmode sum(packetBytes)
attr source packetDropReasonIsIncorrectlyReceived(packetDropped)
attr title "packet drop: incorrectly received, sum(packetBytes)"
scalar Ethernet.s5.eth.mac packetDropInterfaceDown:count 0
attr interpolationmode none
attr recordingmode count
attr source packetDropReasonIsInterfaceDown(packetDropped)
attr title "packet drop: interface down, count"
scalar Ethernet.s5.eth.mac packetDropInterfaceDown:sum(packetBytes) 0
attr interpolationmode none
attr recordingmode sum(packetBytes)
attr source packetDropReasonIsInterfaceDown(packetDropped)
attr title "packet drop: interface down, sum(packetBytes)"
scalar Ethernet.s5.eth.mac packetDropNotAddressedToUs:count 115
attr interpolationmode none
attr recordingmode count
attr source packetDropReasonIsNotAddressedToUs(packetDropped)
attr title "packet drop: not addressed to us, count"
scalar Ethernet.s5.eth.mac packetDropNotAddressedToUs:sum(packetBytes) 135029
attr interpolationmode none
attr recordingmode sum(packetBytes)
attr source packetDropReasonIsNotAddressedToUs(packetDropped)
attr title "packet drop: not addressed to us, sum(packetBytes)"
par Ethernet.s5.eth typename "\"inet.linklayer.ethernet.EthernetInterface\""
par Ethernet.s5.eth displayStringTextFormat "\"%a (%i)\\n%m\""
par Ethernet.s5.eth recordPcap false
par Ethernet.s5.eth numPcapRecorders 0
par Ethernet.s5.eth interfaceTableModule "\"Ethernet.s5.interfaceTable\""
par Ethernet.s5.eth protocol "\"ethernetmac\""
par Ethernet.s5.eth address "\"0A-AA-00-00-00-06\""
attr mutable ""
par Ethernet.s5.eth duplexMode true
par Ethernet.s5.eth csmacdSupport true
par Ethernet.s5.eth bitrate 0bps
attr unit bps
par Ethernet.s5.eth fcsMode "\"declared\""
attr enum declared,computed
scalar Ethernet.s5.eth packetDropInterfaceDown:count 0
attr interpolationmode none
attr recordingmode count
attr source packetDropReasonIsInterfaceDown(packetDropped)
attr title "packet drops: interface down, count"
scalar Ethernet.s5.eth packetDropInterfaceDown:sum(packetBytes) 0
attr interpolationmode none
attr recordingmode sum(packetBytes)
attr source packetDropReasonIsInterfaceDown(packetDropped)
attr title "packet drops: interface down, sum(packetBytes)"
scalar Ethernet.s5.eth packetDropNoCarrier:count 0
attr interpolationmode none
attr recordingmode count
attr source packetDropReasonIsNoCarrier(packetDropped)
attr title "packet drops: no carrier, count"
scalar Ethernet.s5.eth packetDropNoCarrier:sum(packetBytes) 0
attr interpolationmode none
attr recordingmode sum(packetBytes)
attr source packetDropReasonIsNoCarrier(packetDropped)
attr title "packet drops: no carrier, sum(packetBytes)"
par Ethernet.s5 typename "\"inet.node.ethernet.EthernetHost\""
par Ethernet.s5 hasStatus false
par Ethernet.s5 csmacdSupport true
par Ethernet.s5 fcsMode "\"declared\""
attr enum declared,computed
par Ethernet.ethernetHub typename "\"inet.node.ethernet.EthernetHub\""
scalar Ethernet.ethernetHub packetReceived:count 195
attr interpolationmode none
attr recordingmode count
attr source packetReceived
attr title "packets, count"
scalar Ethernet.ethernetHub packetReceived:sum(packetBytes) 226570
attr interpolationmode none
attr recordingmode sum(packetBytes)
attr source packetReceived
attr title "packets, sum(packetBytes)"
par Ethernet typename "\"test_omnetpp.simulations.Ethernet\""

